version 3
run VoIP-DL-0-20250224-16:35:34-2180
attr configname VoIP-DL
attr datetime 20250224-16:35:34
attr datetimef 20250224-163534
attr experiment VoIP-DL
attr inifile omnetpp.ini
attr iterationvars ""
attr iterationvarsd ""
attr iterationvarsf ""
attr measurement ""
attr network SingleCell
attr processid 2180
attr repetition 0
attr replication #0
attr resultdir results
attr runnumber 0
attr seedset 0
config image-path ../inet4.5/images;../simu5g/images
config network SingleCell
config sim-time-limit 30s
config **.routingRecorder.enabled false
config output-scalar-file results/VoIP-DL/0.sca
config output-vector-file results/VoIP-DL/0.vec
config seed-set 0
config **.vector-recording true
config **.mobility.constraintAreaMaxX 600m
config **.mobility.constraintAreaMaxY 600m
config **.mobility.constraintAreaMinX 0m
config **.mobility.constraintAreaMinY 0m
config **.mobility.constraintAreaMinZ 0m
config **.mobility.constraintAreaMaxZ 2m
config **.mobility.initFromDisplayString false
config *.ue[*].mobility.typename TurtleMobility
config *.ue[*].mobility.turtleScript "xmldoc(\"mobility.xml\")"
config **.numBands 50
config **.ueTxPower 15dBm
config **.eNodeBTxPower 15dBm
config **.targetBler 0.01
config **.blerShift 5
config *.configurator.config "xmldoc(\"./demo.xml\")"
config *.gnb.mobility.initialX 450m
config *.gnb.mobility.initialY 300m
config *.numUe 1
config *.ue[0].macCellId 0
config *.ue[0].masterId 0
config *.ue[0].nrMacCellId 1
config *.ue[0].nrMasterId 1
config *.ue[*].numApps 1
config *.server.numApps 1
config *.ue[*].app[*].typename VoIPReceiver
config *.ue[*].app[0].localPort 3000
config *.server.app[*].packetSize 1000B
config *.server.app[*].destAddress "\"ue[0]\""
config *.server.app[*].localPort 3088+ancestorIndex(0)
config *.server.app[*].typename VoIPSender
config *.server.app[*].startTime uniform(0s,0.02s)
config *.physicalEnvironment.config "xmldoc(\"walls.xml\")"
config *.radioMedium.obstacleLoss.typename IdealObstacleLoss
config *.radioMedium.typename ApskScalarRadioMedium
config **.wlan[0].radio.typename ApskScalarRadio

par SingleCell.server.pppg$o[0].channel typename "\"inet.node.ethernet.Eth10G\""
par SingleCell.server.pppg$o[0].channel disabled false
attr mutable ""
par SingleCell.server.pppg$o[0].channel delay 5e-08s
attr mutable ""
attr unit s
par SingleCell.server.pppg$o[0].channel datarate 1e+10bps
attr mutable ""
attr unit bps
par SingleCell.server.pppg$o[0].channel ber 0
attr mutable ""
par SingleCell.server.pppg$o[0].channel per 0
attr mutable ""
par SingleCell.server.pppg$o[0].channel length 10m
attr unit m
par SingleCell.router.pppg$o[0].channel typename "\"inet.node.ethernet.Eth10G\""
par SingleCell.router.pppg$o[0].channel disabled false
attr mutable ""
par SingleCell.router.pppg$o[0].channel delay 5e-08s
attr mutable ""
attr unit s
par SingleCell.router.pppg$o[0].channel datarate 1e+10bps
attr mutable ""
attr unit bps
par SingleCell.router.pppg$o[0].channel ber 0
attr mutable ""
par SingleCell.router.pppg$o[0].channel per 0
attr mutable ""
par SingleCell.router.pppg$o[0].channel length 10m
attr unit m
par SingleCell.router.pppg$o[1].channel typename "\"inet.node.ethernet.Eth10G\""
par SingleCell.router.pppg$o[1].channel disabled false
attr mutable ""
par SingleCell.router.pppg$o[1].channel delay 5e-08s
attr mutable ""
attr unit s
par SingleCell.router.pppg$o[1].channel datarate 1e+10bps
attr mutable ""
attr unit bps
par SingleCell.router.pppg$o[1].channel ber 0
attr mutable ""
par SingleCell.router.pppg$o[1].channel per 0
attr mutable ""
par SingleCell.router.pppg$o[1].channel length 10m
attr unit m
par SingleCell.upf.filterGate$o.channel typename "\"inet.node.ethernet.Eth10G\""
par SingleCell.upf.filterGate$o.channel disabled false
attr mutable ""
par SingleCell.upf.filterGate$o.channel delay 5e-08s
attr mutable ""
attr unit s
par SingleCell.upf.filterGate$o.channel datarate 1e+10bps
attr mutable ""
attr unit bps
par SingleCell.upf.filterGate$o.channel ber 0
attr mutable ""
par SingleCell.upf.filterGate$o.channel per 0
attr mutable ""
par SingleCell.upf.filterGate$o.channel length 10m
attr unit m
par SingleCell.upf.pppg$o[0].channel typename "\"inet.node.ethernet.Eth10G\""
par SingleCell.upf.pppg$o[0].channel disabled false
attr mutable ""
par SingleCell.upf.pppg$o[0].channel delay 5e-08s
attr mutable ""
attr unit s
par SingleCell.upf.pppg$o[0].channel datarate 1e+10bps
attr mutable ""
attr unit bps
par SingleCell.upf.pppg$o[0].channel ber 0
attr mutable ""
par SingleCell.upf.pppg$o[0].channel per 0
attr mutable ""
par SingleCell.upf.pppg$o[0].channel length 10m
attr unit m
par SingleCell.iUpf.pppg$o[0].channel typename "\"inet.node.ethernet.Eth10G\""
par SingleCell.iUpf.pppg$o[0].channel disabled false
attr mutable ""
par SingleCell.iUpf.pppg$o[0].channel delay 5e-08s
attr mutable ""
attr unit s
par SingleCell.iUpf.pppg$o[0].channel datarate 1e+10bps
attr mutable ""
attr unit bps
par SingleCell.iUpf.pppg$o[0].channel ber 0
attr mutable ""
par SingleCell.iUpf.pppg$o[0].channel per 0
attr mutable ""
par SingleCell.iUpf.pppg$o[0].channel length 10m
attr unit m
par SingleCell.iUpf.pppg$o[1].channel typename "\"inet.node.ethernet.Eth10G\""
par SingleCell.iUpf.pppg$o[1].channel disabled false
attr mutable ""
par SingleCell.iUpf.pppg$o[1].channel delay 5e-08s
attr mutable ""
attr unit s
par SingleCell.iUpf.pppg$o[1].channel datarate 1e+10bps
attr mutable ""
attr unit bps
par SingleCell.iUpf.pppg$o[1].channel ber 0
attr mutable ""
par SingleCell.iUpf.pppg$o[1].channel per 0
attr mutable ""
par SingleCell.iUpf.pppg$o[1].channel length 10m
attr unit m
par SingleCell.gnb.ppp$o.channel typename "\"inet.node.ethernet.Eth10G\""
par SingleCell.gnb.ppp$o.channel disabled false
attr mutable ""
par SingleCell.gnb.ppp$o.channel delay 5e-08s
attr mutable ""
attr unit s
par SingleCell.gnb.ppp$o.channel datarate 1e+10bps
attr mutable ""
attr unit bps
par SingleCell.gnb.ppp$o.channel ber 0
attr mutable ""
par SingleCell.gnb.ppp$o.channel per 0
attr mutable ""
par SingleCell.gnb.ppp$o.channel length 10m
attr unit m
par SingleCell.visualizer.sceneVisualizer typename "\"inet.visualizer.canvas.scene.SceneCanvasVisualizer\""
par SingleCell.visualizer.sceneVisualizer visualizationTargetModule "\"^.^\""
par SingleCell.visualizer.sceneVisualizer visualizationSubjectModule "\"^.^\""
par SingleCell.visualizer.sceneVisualizer tags "\"\""
par SingleCell.visualizer.sceneVisualizer physicalEnvironmentModule "\"physicalEnvironment\""
par SingleCell.visualizer.sceneVisualizer networkNodeVisualizerModule "\"^.networkNodeVisualizer\""
par SingleCell.visualizer.sceneVisualizer axisLength "nan m"
attr mutable ""
attr unit m
par SingleCell.visualizer.sceneVisualizer animationSpeed 0
par SingleCell.visualizer.sceneVisualizer sceneMinX "nan m"
attr unit m
par SingleCell.visualizer.sceneVisualizer sceneMinY "nan m"
attr unit m
par SingleCell.visualizer.sceneVisualizer sceneMinZ "nan m"
attr unit m
par SingleCell.visualizer.sceneVisualizer sceneMaxX "nan m"
attr unit m
par SingleCell.visualizer.sceneVisualizer sceneMaxY "nan m"
attr unit m
par SingleCell.visualizer.sceneVisualizer sceneMaxZ "nan m"
attr unit m
par SingleCell.visualizer.sceneVisualizer zIndex 0
par SingleCell.visualizer.sceneVisualizer viewAngle "\"x right y down z out\""
attr mutable ""
par SingleCell.visualizer.sceneVisualizer viewScale "\"1 1\""
attr mutable ""
par SingleCell.visualizer.sceneVisualizer viewTranslation "\"0 0\""
attr mutable ""
par SingleCell.visualizer.sceneVisualizer descriptionFigure "\"\""
par SingleCell.visualizer.physicalEnvironmentVisualizer typename "\"inet.visualizer.canvas.environment.PhysicalEnvironmentCanvasVisualizer\""
par SingleCell.visualizer.physicalEnvironmentVisualizer visualizationTargetModule "\"^.^\""
par SingleCell.visualizer.physicalEnvironmentVisualizer visualizationSubjectModule "\"^.^\""
par SingleCell.visualizer.physicalEnvironmentVisualizer tags "\"\""
par SingleCell.visualizer.physicalEnvironmentVisualizer physicalEnvironmentModule "\"physicalEnvironment\""
par SingleCell.visualizer.physicalEnvironmentVisualizer displayObjects true
par SingleCell.visualizer.physicalEnvironmentVisualizer zIndex 0
par SingleCell.visualizer.networkNodeVisualizer typename "\"inet.visualizer.canvas.scene.NetworkNodeCanvasVisualizer\""
par SingleCell.visualizer.networkNodeVisualizer visualizationTargetModule "\"^.^\""
par SingleCell.visualizer.networkNodeVisualizer visualizationSubjectModule "\"^.^\""
par SingleCell.visualizer.networkNodeVisualizer tags "\"\""
par SingleCell.visualizer.networkNodeVisualizer nodeFilter "\"*\""
attr mutable ""
par SingleCell.visualizer.networkNodeVisualizer annotationSpacing 4
par SingleCell.visualizer.networkNodeVisualizer placementPenalty 10
par SingleCell.visualizer.networkNodeVisualizer zIndex 0
par SingleCell.visualizer.networkConnectionVisualizer typename "\"inet.visualizer.canvas.scene.NetworkConnectionCanvasVisualizer\""
par SingleCell.visualizer.networkConnectionVisualizer visualizationTargetModule "\"^.^\""
par SingleCell.visualizer.networkConnectionVisualizer visualizationSubjectModule "\"^.^\""
par SingleCell.visualizer.networkConnectionVisualizer tags "\"\""
par SingleCell.visualizer.networkConnectionVisualizer displayNetworkConnections true
par SingleCell.visualizer.networkConnectionVisualizer nodeFilter "\"\""
attr mutable ""
par SingleCell.visualizer.networkConnectionVisualizer lineColor "\"black\""
par SingleCell.visualizer.networkConnectionVisualizer lineStyle "\"solid\""
par SingleCell.visualizer.networkConnectionVisualizer lineWidth 1
par SingleCell.visualizer.networkConnectionVisualizer zIndex 0
par SingleCell.visualizer.mobilityVisualizer typename "\"inet.visualizer.canvas.mobility.MobilityCanvasVisualizer\""
par SingleCell.visualizer.mobilityVisualizer visualizationTargetModule "\"^.^\""
par SingleCell.visualizer.mobilityVisualizer visualizationSubjectModule "\"^.^\""
par SingleCell.visualizer.mobilityVisualizer tags "\"\""
par SingleCell.visualizer.mobilityVisualizer networkNodeVisualizerModule "\"^.networkNodeVisualizer\""
par SingleCell.visualizer.mobilityVisualizer displayMobility true
par SingleCell.visualizer.mobilityVisualizer animationSpeed 0
par SingleCell.visualizer.mobilityVisualizer moduleFilter "\"**.mobility\""
attr mutable ""
par SingleCell.visualizer.mobilityVisualizer displayPositions false
par SingleCell.visualizer.mobilityVisualizer positionCircleRadius 4
par SingleCell.visualizer.mobilityVisualizer positionCircleLineWidth 1
par SingleCell.visualizer.mobilityVisualizer positionCircleLineColor "\"dark\""
par SingleCell.visualizer.mobilityVisualizer positionCircleFillColor "\"dark\""
par SingleCell.visualizer.mobilityVisualizer displayOrientations false
par SingleCell.visualizer.mobilityVisualizer orientationPieRadius 32
par SingleCell.visualizer.mobilityVisualizer orientationPieSize 0.2
par SingleCell.visualizer.mobilityVisualizer orientationPieOpacity 0.25
par SingleCell.visualizer.mobilityVisualizer orientationLineColor "\"black\""
par SingleCell.visualizer.mobilityVisualizer orientationLineStyle "\"solid\""
par SingleCell.visualizer.mobilityVisualizer orientationLineWidth 1
par SingleCell.visualizer.mobilityVisualizer orientationFillColor "\"blue\""
par SingleCell.visualizer.mobilityVisualizer displayVelocities false
par SingleCell.visualizer.mobilityVisualizer velocityArrowScale 1
par SingleCell.visualizer.mobilityVisualizer velocityLineColor "\"black\""
par SingleCell.visualizer.mobilityVisualizer velocityLineStyle "\"solid\""
par SingleCell.visualizer.mobilityVisualizer velocityLineWidth 1
par SingleCell.visualizer.mobilityVisualizer displayMovementTrails false
par SingleCell.visualizer.mobilityVisualizer movementTrailLineColor "\"dark\""
par SingleCell.visualizer.mobilityVisualizer movementTrailLineStyle "\"solid\""
par SingleCell.visualizer.mobilityVisualizer movementTrailLineWidth 1
par SingleCell.visualizer.mobilityVisualizer trailLength 100
par SingleCell.visualizer.mobilityVisualizer zIndex 0
par SingleCell.visualizer.statisticVisualizer typename "\"inet.visualizer.canvas.common.StatisticCanvasVisualizer\""
par SingleCell.visualizer.statisticVisualizer visualizationTargetModule "\"^.^\""
par SingleCell.visualizer.statisticVisualizer visualizationSubjectModule "\"^.^\""
par SingleCell.visualizer.statisticVisualizer tags "\"\""
par SingleCell.visualizer.statisticVisualizer networkNodeVisualizerModule "\"^.networkNodeVisualizer\""
par SingleCell.visualizer.statisticVisualizer displayStatistics true
par SingleCell.visualizer.statisticVisualizer signalName "\"\""
par SingleCell.visualizer.statisticVisualizer statisticName "\"\""
par SingleCell.visualizer.statisticVisualizer statisticUnit "\"\""
par SingleCell.visualizer.statisticVisualizer statisticExpression "\"\""
par SingleCell.visualizer.statisticVisualizer sourceFilter "\"**\""
attr mutable ""
par SingleCell.visualizer.statisticVisualizer format "\"%n: %v %u\""
attr mutable ""
par SingleCell.visualizer.statisticVisualizer unit "\"\""
par SingleCell.visualizer.statisticVisualizer font "\"<default>\""
par SingleCell.visualizer.statisticVisualizer textColor "\"black\""
par SingleCell.visualizer.statisticVisualizer backgroundColor "\"white\""
par SingleCell.visualizer.statisticVisualizer opacity 1
par SingleCell.visualizer.statisticVisualizer placementHint "\"top\""
par SingleCell.visualizer.statisticVisualizer placementPriority 0
par SingleCell.visualizer.statisticVisualizer zIndex 10
par SingleCell.visualizer.statisticVisualizer propertyName "\"\""
par SingleCell.visualizer.statisticVisualizer propertyIndex "\"\""
par SingleCell.visualizer.infoVisualizer typename "\"inet.visualizer.canvas.common.InfoCanvasVisualizer\""
par SingleCell.visualizer.infoVisualizer visualizationTargetModule "\"^.^\""
par SingleCell.visualizer.infoVisualizer visualizationSubjectModule "\"^.^\""
par SingleCell.visualizer.infoVisualizer tags "\"\""
par SingleCell.visualizer.infoVisualizer networkNodeVisualizerModule "\"^.networkNodeVisualizer\""
par SingleCell.visualizer.infoVisualizer displayInfos true
par SingleCell.visualizer.infoVisualizer modules "\"\""
attr mutable ""
par SingleCell.visualizer.infoVisualizer format "\"%t\""
attr mutable ""
par SingleCell.visualizer.infoVisualizer font "\"<default>\""
par SingleCell.visualizer.infoVisualizer textColor "\"black\""
par SingleCell.visualizer.infoVisualizer backgroundColor "\"white\""
par SingleCell.visualizer.infoVisualizer opacity 1
par SingleCell.visualizer.infoVisualizer placementHint "\"top\""
par SingleCell.visualizer.infoVisualizer placementPriority 0
par SingleCell.visualizer.infoVisualizer zIndex 10
par SingleCell.visualizer.energyStorageVisualizer typename "\"inet.visualizer.canvas.power.EnergyStorageCanvasVisualizer\""
par SingleCell.visualizer.energyStorageVisualizer visualizationTargetModule "\"^.^\""
par SingleCell.visualizer.energyStorageVisualizer visualizationSubjectModule "\"^.^\""
par SingleCell.visualizer.energyStorageVisualizer tags "\"\""
par SingleCell.visualizer.energyStorageVisualizer networkNodeVisualizerModule "\"^.networkNodeVisualizer\""
par SingleCell.visualizer.energyStorageVisualizer displayEnergyStorages false
par SingleCell.visualizer.energyStorageVisualizer energyStorageFilter "\"**\""
par SingleCell.visualizer.energyStorageVisualizer color "\"green\""
par SingleCell.visualizer.energyStorageVisualizer width 8
par SingleCell.visualizer.energyStorageVisualizer height 24
par SingleCell.visualizer.energyStorageVisualizer spacing 2
par SingleCell.visualizer.energyStorageVisualizer placementHint "\"right\""
par SingleCell.visualizer.energyStorageVisualizer placementPriority 0
par SingleCell.visualizer.energyStorageVisualizer zIndex 10
par SingleCell.visualizer.mediumVisualizer typename "\"inet.visualizer.canvas.physicallayer.MediumCanvasVisualizer\""
par SingleCell.visualizer.mediumVisualizer visualizationTargetModule "\"^.^\""
par SingleCell.visualizer.mediumVisualizer visualizationSubjectModule "\"^.^\""
par SingleCell.visualizer.mediumVisualizer tags "\"\""
par SingleCell.visualizer.mediumVisualizer mediumModule "\"radioMedium\""
par SingleCell.visualizer.mediumVisualizer networkNodeVisualizerModule "\"^.networkNodeVisualizer\""
par SingleCell.visualizer.mediumVisualizer nodeFilter "\"*\""
attr mutable ""
par SingleCell.visualizer.mediumVisualizer interfaceFilter "\"*\""
attr mutable ""
par SingleCell.visualizer.mediumVisualizer packetFilter "(omnetpp::cValueHolder)holder: \"*\""
attr mutable ""
par SingleCell.visualizer.mediumVisualizer displaySignals false
par SingleCell.visualizer.mediumVisualizer signalColor "\"dark\""
par SingleCell.visualizer.mediumVisualizer signalPropagationAnimationSpeed "nan "
attr mutable ""
par SingleCell.visualizer.mediumVisualizer signalPropagationAnimationTime 1s
attr unit s
par SingleCell.visualizer.mediumVisualizer signalPropagationAdditionalTime 0s
attr unit s
par SingleCell.visualizer.mediumVisualizer signalTransmissionAnimationSpeed "nan "
attr mutable ""
par SingleCell.visualizer.mediumVisualizer signalTransmissionAnimationTime 1s
attr unit s
par SingleCell.visualizer.mediumVisualizer signalAnimationSpeedChangeTimeMode "\"realTime\""
attr enum realTime,animationTime,simulationTime
par SingleCell.visualizer.mediumVisualizer signalAnimationSpeedChangeTime 1s
attr unit s
par SingleCell.visualizer.mediumVisualizer displaySignalDepartures false
par SingleCell.visualizer.mediumVisualizer signalDepartureImage "\"misc/signal_departure.png\""
par SingleCell.visualizer.mediumVisualizer signalDeparturePlacementHint "\"topCenter\""
par SingleCell.visualizer.mediumVisualizer signalDeparturePlacementPriority 1
par SingleCell.visualizer.mediumVisualizer displaySignalArrivals false
par SingleCell.visualizer.mediumVisualizer signalArrivalImage "\"misc/signal_arrival.png\""
par SingleCell.visualizer.mediumVisualizer signalArrivalPlacementHint "\"topCenter\""
par SingleCell.visualizer.mediumVisualizer signalArrivalPlacementPriority -1
par SingleCell.visualizer.mediumVisualizer displayCommunicationRanges false
par SingleCell.visualizer.mediumVisualizer communicationRangeLineColor "\"blue\""
par SingleCell.visualizer.mediumVisualizer communicationRangeLineStyle "\"solid\""
par SingleCell.visualizer.mediumVisualizer communicationRangeLineWidth 1
par SingleCell.visualizer.mediumVisualizer displayInterferenceRanges false
par SingleCell.visualizer.mediumVisualizer interferenceRangeLineColor "\"gray\""
par SingleCell.visualizer.mediumVisualizer interferenceRangeLineStyle "\"solid\""
par SingleCell.visualizer.mediumVisualizer interferenceRangeLineWidth 1
par SingleCell.visualizer.mediumVisualizer autoPowerAxis true
par SingleCell.visualizer.mediumVisualizer signalMinPower "inf dBmW"
attr unit dBmW
par SingleCell.visualizer.mediumVisualizer signalMaxPower 0dBmW
attr unit dBmW
par SingleCell.visualizer.mediumVisualizer signalMinPowerDensity "inf dBmWpMHz"
attr unit dBmWpMHz
par SingleCell.visualizer.mediumVisualizer signalMaxPowerDensity "-inf dBmWpMHz"
attr unit dBmWpMHz
par SingleCell.visualizer.mediumVisualizer autoTimeAxis true
par SingleCell.visualizer.mediumVisualizer signalMinTime 0s
attr unit s
par SingleCell.visualizer.mediumVisualizer signalMaxTime 0s
attr unit s
par SingleCell.visualizer.mediumVisualizer autoFrequencyAxis true
par SingleCell.visualizer.mediumVisualizer signalMinFrequency "inf Hz"
attr unit Hz
par SingleCell.visualizer.mediumVisualizer signalMaxFrequency "-inf Hz"
attr unit Hz
par SingleCell.visualizer.mediumVisualizer displayMainPowerDensityMap false
par SingleCell.visualizer.mediumVisualizer mainPowerDensityMapPixmapDensity 1
par SingleCell.visualizer.mediumVisualizer mainPowerDensityMapMinX 0
par SingleCell.visualizer.mediumVisualizer mainPowerDensityMapMaxX "nan "
par SingleCell.visualizer.mediumVisualizer mainPowerDensityMapMinY 0
par SingleCell.visualizer.mediumVisualizer mainPowerDensityMapMaxY "nan "
par SingleCell.visualizer.mediumVisualizer mainPowerDensityMapZ 0
par SingleCell.visualizer.mediumVisualizer mainPowerDensityMapFigureXTickCount 3
par SingleCell.visualizer.mediumVisualizer mainPowerDensityMapFigureYTickCount 3
par SingleCell.visualizer.mediumVisualizer displayPowerDensityMaps false
par SingleCell.visualizer.mediumVisualizer powerDensityMapMode "\"auto\""
attr enum total,signal,auto
par SingleCell.visualizer.mediumVisualizer powerDensityMapPixelMode "\"mean\""
attr enum sample,partition,mean
par SingleCell.visualizer.mediumVisualizer powerDensityMapApproximationSize 10
par SingleCell.visualizer.mediumVisualizer powerDensityMapCenterFrequency "nan Hz"
attr mutable ""
attr unit Hz
par SingleCell.visualizer.mediumVisualizer powerDensityMapBandwidth 0Hz
attr mutable ""
attr unit Hz
par SingleCell.visualizer.mediumVisualizer powerDensityMapFigureWidth 200
par SingleCell.visualizer.mediumVisualizer powerDensityMapFigureHeight 120
par SingleCell.visualizer.mediumVisualizer powerDensityMapPixmapWidth 200
par SingleCell.visualizer.mediumVisualizer powerDensityMapPixmapHeight 120
par SingleCell.visualizer.mediumVisualizer powerDensityMapZ 0
par SingleCell.visualizer.mediumVisualizer powerDensityMapFigureXTickCount 3
par SingleCell.visualizer.mediumVisualizer powerDensityMapFigureYTickCount 3
par SingleCell.visualizer.mediumVisualizer displaySpectrums false
par SingleCell.visualizer.mediumVisualizer spectrumMode "\"auto\""
attr enum total,signal,auto
par SingleCell.visualizer.mediumVisualizer spectrumFigureWidth 200
par SingleCell.visualizer.mediumVisualizer spectrumFigureHeight 120
par SingleCell.visualizer.mediumVisualizer spectrumFigureXTickCount 3
par SingleCell.visualizer.mediumVisualizer spectrumFigureYTickCount 5
par SingleCell.visualizer.mediumVisualizer spectrumFigureInterpolationSize 5
par SingleCell.visualizer.mediumVisualizer spectrumPlacementHint "\"bottomCenter\""
par SingleCell.visualizer.mediumVisualizer spectrumPlacementPriority -1
par SingleCell.visualizer.mediumVisualizer displaySpectrograms false
par SingleCell.visualizer.mediumVisualizer spectrogramMode "\"auto\""
attr enum total,signal,auto
par SingleCell.visualizer.mediumVisualizer spectrogramPixelMode "\"mean\""
attr enum sample,partition,mean
par SingleCell.visualizer.mediumVisualizer spectrogramFigureWidth 200
par SingleCell.visualizer.mediumVisualizer spectrogramFigureHeight 120
par SingleCell.visualizer.mediumVisualizer spectrogramPixmapWidth 200
par SingleCell.visualizer.mediumVisualizer spectrogramPixmapHeight 120
par SingleCell.visualizer.mediumVisualizer spectrogramFigureXTickCount 3
par SingleCell.visualizer.mediumVisualizer spectrogramFigureYTickCount 5
par SingleCell.visualizer.mediumVisualizer spectrogramPlacementHint "\"bottomCenter\""
par SingleCell.visualizer.mediumVisualizer spectrogramPlacementPriority -1
par SingleCell.visualizer.mediumVisualizer zIndex 0
par SingleCell.visualizer.mediumVisualizer signalShape "\"ring\""
attr enum ring,sphere
par SingleCell.visualizer.mediumVisualizer signalOpacity 0.5
par SingleCell.visualizer.mediumVisualizer signalRingCount 20
par SingleCell.visualizer.mediumVisualizer signalRingSize 50m
attr unit m
par SingleCell.visualizer.mediumVisualizer signalFadingDistance 50m
attr unit m
par SingleCell.visualizer.mediumVisualizer signalFadingFactor 1.2
par SingleCell.visualizer.mediumVisualizer signalWaveCount 20
par SingleCell.visualizer.mediumVisualizer signalWaveLength 50m
attr unit m
par SingleCell.visualizer.mediumVisualizer signalWaveWidth 10m
attr unit m
par SingleCell.visualizer.mediumVisualizer signalWaveFadingAnimationSpeedFactor 1
par SingleCell.visualizer.mediumVisualizer displayCommunicationHeat false
par SingleCell.visualizer.obstacleLossVisualizer typename "\"inet.visualizer.canvas.physicallayer.TracingObstacleLossCanvasVisualizer\""
par SingleCell.visualizer.obstacleLossVisualizer visualizationTargetModule "\"^.^\""
par SingleCell.visualizer.obstacleLossVisualizer visualizationSubjectModule "\"^.^\""
par SingleCell.visualizer.obstacleLossVisualizer tags "\"\""
par SingleCell.visualizer.obstacleLossVisualizer displayIntersections false
par SingleCell.visualizer.obstacleLossVisualizer intersectionLineColor "\"red\""
par SingleCell.visualizer.obstacleLossVisualizer intersectionLineStyle "\"solid\""
par SingleCell.visualizer.obstacleLossVisualizer intersectionLineWidth 1
par SingleCell.visualizer.obstacleLossVisualizer displayFaceNormalVectors false
par SingleCell.visualizer.obstacleLossVisualizer faceNormalLineColor "\"grey\""
par SingleCell.visualizer.obstacleLossVisualizer faceNormalLineStyle "\"solid\""
par SingleCell.visualizer.obstacleLossVisualizer faceNormalLineWidth 1
par SingleCell.visualizer.obstacleLossVisualizer fadeOutMode "\"realTime\""
attr enum realTime,animationTime,simulationTime
par SingleCell.visualizer.obstacleLossVisualizer fadeOutTime 1s
attr unit s
par SingleCell.visualizer.obstacleLossVisualizer fadeOutAnimationSpeed 0
par SingleCell.visualizer.obstacleLossVisualizer zIndex 0
par SingleCell.visualizer.packetDropVisualizer typename "\"inet.visualizer.canvas.common.PacketDropCanvasVisualizer\""
par SingleCell.visualizer.packetDropVisualizer visualizationTargetModule "\"^.^\""
par SingleCell.visualizer.packetDropVisualizer visualizationSubjectModule "\"^.^\""
par SingleCell.visualizer.packetDropVisualizer tags "\"\""
par SingleCell.visualizer.packetDropVisualizer displayPacketDrops false
par SingleCell.visualizer.packetDropVisualizer nodeFilter "\"*\""
attr mutable ""
par SingleCell.visualizer.packetDropVisualizer interfaceFilter "\"*\""
attr mutable ""
par SingleCell.visualizer.packetDropVisualizer packetFilter "(omnetpp::cValueHolder)holder: \"*\""
attr mutable ""
par SingleCell.visualizer.packetDropVisualizer detailsFilter "\"*\""
attr mutable ""
par SingleCell.visualizer.packetDropVisualizer icon "\"msg/packet_s\""
par SingleCell.visualizer.packetDropVisualizer iconTintAmount 1
par SingleCell.visualizer.packetDropVisualizer iconTintColor "\"dark\""
par SingleCell.visualizer.packetDropVisualizer labelFormat "\"%n\""
attr mutable ""
par SingleCell.visualizer.packetDropVisualizer labelFont "\"<default>\""
par SingleCell.visualizer.packetDropVisualizer labelColor "\"black\""
par SingleCell.visualizer.packetDropVisualizer fadeOutMode "\"realTime\""
attr enum realTime,animationTime,simulationTime
par SingleCell.visualizer.packetDropVisualizer fadeOutTime 1s
attr unit s
par SingleCell.visualizer.packetDropVisualizer fadeOutAnimationSpeed 0
par SingleCell.visualizer.packetDropVisualizer zIndex 10
par SingleCell.visualizer.packetDropVisualizer dx 32
par SingleCell.visualizer.packetDropVisualizer dy 64
par SingleCell.visualizer.packetFlowVisualizer typename "\"inet.visualizer.canvas.flow.PacketFlowCanvasVisualizer\""
par SingleCell.visualizer.packetFlowVisualizer visualizationTargetModule "\"^.^\""
par SingleCell.visualizer.packetFlowVisualizer visualizationSubjectModule "\"^.^\""
par SingleCell.visualizer.packetFlowVisualizer tags "\"\""
par SingleCell.visualizer.packetFlowVisualizer displayRoutes false
par SingleCell.visualizer.packetFlowVisualizer startPathSignal "\"packetFlowStarted\""
par SingleCell.visualizer.packetFlowVisualizer extendPathSignal "\"packetReceivedFromLower\""
par SingleCell.visualizer.packetFlowVisualizer endPathSignal "\"packetFlowEnded\""
par SingleCell.visualizer.packetFlowVisualizer nodeFilter "\"*\""
attr mutable ""
par SingleCell.visualizer.packetFlowVisualizer packetFilter "(omnetpp::cValueHolder)holder: \"*\""
attr mutable ""
par SingleCell.visualizer.packetFlowVisualizer lineColor "\"dark\""
par SingleCell.visualizer.packetFlowVisualizer lineStyle "\"dashed\""
par SingleCell.visualizer.packetFlowVisualizer lineWidth 3
par SingleCell.visualizer.packetFlowVisualizer lineSmooth false
par SingleCell.visualizer.packetFlowVisualizer lineShift 16
par SingleCell.visualizer.packetFlowVisualizer lineShiftMode "\"normal\""
par SingleCell.visualizer.packetFlowVisualizer lineContactSpacing 3
par SingleCell.visualizer.packetFlowVisualizer lineContactMode "\"rectangular\""
attr enum circular,rectangular
par SingleCell.visualizer.packetFlowVisualizer labelFormat "\"%L %p pk (%l)\""
par SingleCell.visualizer.packetFlowVisualizer labelFont "\"<default>, 8px\""
par SingleCell.visualizer.packetFlowVisualizer labelColor "\"\""
par SingleCell.visualizer.packetFlowVisualizer fadeOutMode "\"realTime\""
attr enum realTime,animationTime,simulationTime
par SingleCell.visualizer.packetFlowVisualizer fadeOutTime 0s
attr unit s
par SingleCell.visualizer.packetFlowVisualizer fadeOutAnimationSpeed 0
par SingleCell.visualizer.packetFlowVisualizer zIndex 4
par SingleCell.visualizer.queueVisualizer typename "\"inet.visualizer.canvas.common.QueueCanvasVisualizer\""
par SingleCell.visualizer.queueVisualizer visualizationTargetModule "\"^.^\""
par SingleCell.visualizer.queueVisualizer visualizationSubjectModule "\"^.^\""
par SingleCell.visualizer.queueVisualizer tags "\"\""
par SingleCell.visualizer.queueVisualizer networkNodeVisualizerModule "\"^.networkNodeVisualizer\""
par SingleCell.visualizer.queueVisualizer displayQueues false
par SingleCell.visualizer.queueVisualizer queueFilter "\"**\""
par SingleCell.visualizer.queueVisualizer color "\"blue\""
par SingleCell.visualizer.queueVisualizer width 8
par SingleCell.visualizer.queueVisualizer height 24
par SingleCell.visualizer.queueVisualizer spacing 2
par SingleCell.visualizer.queueVisualizer placementHint "\"right\""
par SingleCell.visualizer.queueVisualizer placementPriority 0
par SingleCell.visualizer.queueVisualizer zIndex 10
par SingleCell.visualizer.gateScheduleVisualizer typename "\"inet.visualizer.canvas.common.GateScheduleCanvasVisualizer\""
par SingleCell.visualizer.gateScheduleVisualizer visualizationTargetModule "\"^.^\""
par SingleCell.visualizer.gateScheduleVisualizer visualizationSubjectModule "\"^.^\""
par SingleCell.visualizer.gateScheduleVisualizer tags "\"\""
par SingleCell.visualizer.gateScheduleVisualizer networkNodeVisualizerModule "\"^.networkNodeVisualizer\""
par SingleCell.visualizer.gateScheduleVisualizer displayGateSchedules false
par SingleCell.visualizer.gateScheduleVisualizer labelFormat "\"%i %D\""
par SingleCell.visualizer.gateScheduleVisualizer gateFilter "\"**\""
par SingleCell.visualizer.gateScheduleVisualizer width 100
par SingleCell.visualizer.gateScheduleVisualizer height 8
par SingleCell.visualizer.gateScheduleVisualizer spacing 2
par SingleCell.visualizer.gateScheduleVisualizer placementHint "\"right\""
par SingleCell.visualizer.gateScheduleVisualizer placementPriority 0
par SingleCell.visualizer.gateScheduleVisualizer displayDuration 0s
attr mutable ""
attr unit s
par SingleCell.visualizer.gateScheduleVisualizer currentTimePosition 50
par SingleCell.visualizer.gateScheduleVisualizer zIndex 10
par SingleCell.visualizer.radioVisualizer typename "\"inet.visualizer.canvas.physicallayer.RadioCanvasVisualizer\""
par SingleCell.visualizer.radioVisualizer visualizationTargetModule "\"^.^\""
par SingleCell.visualizer.radioVisualizer visualizationSubjectModule "\"^.^\""
par SingleCell.visualizer.radioVisualizer tags "\"\""
par SingleCell.visualizer.radioVisualizer networkNodeVisualizerModule "\"^.networkNodeVisualizer\""
par SingleCell.visualizer.radioVisualizer displayRadios false
par SingleCell.visualizer.radioVisualizer displayRadioMode true
par SingleCell.visualizer.radioVisualizer displayReceptionState true
par SingleCell.visualizer.radioVisualizer displayTransmissionState true
par SingleCell.visualizer.radioVisualizer displayAntennaLobes false
par SingleCell.visualizer.radioVisualizer radioFilter "\"**\""
attr mutable ""
par SingleCell.visualizer.radioVisualizer radioModeImages "\"block/process_vs block/timer_vs block/wrx_vs block/wtx_vs block/wrxtx_vs block/cogwheel_vs\""
par SingleCell.visualizer.radioVisualizer receptionStateImages "\"- - misc/receiving misc/receiving\""
par SingleCell.visualizer.radioVisualizer transmissionStateImages "\"- - misc/transmitting\""
par SingleCell.visualizer.radioVisualizer width 16
par SingleCell.visualizer.radioVisualizer height 16
par SingleCell.visualizer.radioVisualizer placementHint "\"bottomRight\""
par SingleCell.visualizer.radioVisualizer placementPriority 0
par SingleCell.visualizer.radioVisualizer antennaLobeNormalize false
par SingleCell.visualizer.radioVisualizer antennaLobeRelativeLabels false
par SingleCell.visualizer.radioVisualizer antennaLobePlaneGlobal true
par SingleCell.visualizer.radioVisualizer antennaLobePlane "\"view\""
attr enum view,xy,xz,yz
par SingleCell.visualizer.radioVisualizer antennaLobeMode "\"logarithmic\""
attr enum logarithmic,linear
par SingleCell.visualizer.radioVisualizer antennaLobeLogarithmicBase 10
par SingleCell.visualizer.radioVisualizer antennaLobeLogarithmicScale 100
par SingleCell.visualizer.radioVisualizer antennaLobeRadius 100
par SingleCell.visualizer.radioVisualizer antennaLobeStep 10deg
attr unit deg
par SingleCell.visualizer.radioVisualizer antennaLobeOpacity 0.25
par SingleCell.visualizer.radioVisualizer antennaLobeLineSmooth true
par SingleCell.visualizer.radioVisualizer antennaLobeLineColor "\"black\""
par SingleCell.visualizer.radioVisualizer antennaLobeLineStyle "\"solid\""
par SingleCell.visualizer.radioVisualizer antennaLobeLineWidth 1
par SingleCell.visualizer.radioVisualizer antennaLobeFillColor "\"white\""
par SingleCell.visualizer.radioVisualizer zIndex 10
par SingleCell.visualizer.physicalLinkVisualizer typename "\"inet.visualizer.canvas.physicallayer.PhysicalLinkCanvasVisualizer\""
par SingleCell.visualizer.physicalLinkVisualizer visualizationTargetModule "\"^.^\""
par SingleCell.visualizer.physicalLinkVisualizer visualizationSubjectModule "\"^.^\""
par SingleCell.visualizer.physicalLinkVisualizer tags "\"\""
par SingleCell.visualizer.physicalLinkVisualizer displayLinks false
par SingleCell.visualizer.physicalLinkVisualizer activityLevel "\"service\""
attr enum service,peer,protocol
par SingleCell.visualizer.physicalLinkVisualizer nodeFilter "\"*\""
attr mutable ""
par SingleCell.visualizer.physicalLinkVisualizer interfaceFilter "\"*\""
attr mutable ""
par SingleCell.visualizer.physicalLinkVisualizer packetFilter "(omnetpp::cValueHolder)holder: \"*\""
attr mutable ""
par SingleCell.visualizer.physicalLinkVisualizer lineColor "\"olive\""
par SingleCell.visualizer.physicalLinkVisualizer lineStyle "\"dotted\""
par SingleCell.visualizer.physicalLinkVisualizer lineWidth 3
par SingleCell.visualizer.physicalLinkVisualizer lineShift 16
par SingleCell.visualizer.physicalLinkVisualizer lineShiftMode "\"normal\""
par SingleCell.visualizer.physicalLinkVisualizer lineContactSpacing 3
par SingleCell.visualizer.physicalLinkVisualizer lineContactMode "\"rectangular\""
attr enum circular,rectangular
par SingleCell.visualizer.physicalLinkVisualizer labelFormat "\"%n\""
par SingleCell.visualizer.physicalLinkVisualizer labelFont "\"<default>, 8px\""
par SingleCell.visualizer.physicalLinkVisualizer labelColor "\"olive\""
par SingleCell.visualizer.physicalLinkVisualizer fadeOutMode "\"realTime\""
attr enum realTime,animationTime,simulationTime
par SingleCell.visualizer.physicalLinkVisualizer fadeOutTime 1s
attr unit s
par SingleCell.visualizer.physicalLinkVisualizer fadeOutAnimationSpeed 0
par SingleCell.visualizer.physicalLinkVisualizer holdAnimationTime 0s
attr unit s
par SingleCell.visualizer.physicalLinkVisualizer zIndex 1
par SingleCell.visualizer.interfaceTableVisualizer typename "\"inet.visualizer.canvas.linklayer.InterfaceTableCanvasVisualizer\""
par SingleCell.visualizer.interfaceTableVisualizer visualizationTargetModule "\"^.^\""
par SingleCell.visualizer.interfaceTableVisualizer visualizationSubjectModule "\"^.^\""
par SingleCell.visualizer.interfaceTableVisualizer tags "\"\""
par SingleCell.visualizer.interfaceTableVisualizer networkNodeVisualizerModule "\"^.networkNodeVisualizer\""
par SingleCell.visualizer.interfaceTableVisualizer displayInterfaceTables false
par SingleCell.visualizer.interfaceTableVisualizer displayWiredInterfacesAtConnections true
par SingleCell.visualizer.interfaceTableVisualizer displayBackground false
par SingleCell.visualizer.interfaceTableVisualizer nodeFilter "\"*\""
attr mutable ""
par SingleCell.visualizer.interfaceTableVisualizer interfaceFilter "\"not(lo*)\""
attr mutable ""
par SingleCell.visualizer.interfaceTableVisualizer format "\"%N %\\\\%a%/%l\""
attr mutable ""
par SingleCell.visualizer.interfaceTableVisualizer placementHint "\"top\""
par SingleCell.visualizer.interfaceTableVisualizer placementPriority 0
par SingleCell.visualizer.interfaceTableVisualizer font "\"<default>\""
par SingleCell.visualizer.interfaceTableVisualizer textColor "\"#005030\""
par SingleCell.visualizer.interfaceTableVisualizer backgroundColor "\"white\""
par SingleCell.visualizer.interfaceTableVisualizer opacity 1
par SingleCell.visualizer.interfaceTableVisualizer zIndex 10
par SingleCell.visualizer.dataLinkVisualizer typename "\"inet.visualizer.canvas.linklayer.DataLinkCanvasVisualizer\""
par SingleCell.visualizer.dataLinkVisualizer visualizationTargetModule "\"^.^\""
par SingleCell.visualizer.dataLinkVisualizer visualizationSubjectModule "\"^.^\""
par SingleCell.visualizer.dataLinkVisualizer tags "\"\""
par SingleCell.visualizer.dataLinkVisualizer displayLinks false
par SingleCell.visualizer.dataLinkVisualizer activityLevel "\"service\""
attr enum service,peer,protocol
par SingleCell.visualizer.dataLinkVisualizer nodeFilter "\"*\""
attr mutable ""
par SingleCell.visualizer.dataLinkVisualizer interfaceFilter "\"*\""
attr mutable ""
par SingleCell.visualizer.dataLinkVisualizer packetFilter "(omnetpp::cValueHolder)holder: \"*\""
attr mutable ""
par SingleCell.visualizer.dataLinkVisualizer lineColor "\"darkcyan\""
par SingleCell.visualizer.dataLinkVisualizer lineStyle "\"solid\""
par SingleCell.visualizer.dataLinkVisualizer lineWidth 3
par SingleCell.visualizer.dataLinkVisualizer lineShift 16
par SingleCell.visualizer.dataLinkVisualizer lineShiftMode "\"normal\""
par SingleCell.visualizer.dataLinkVisualizer lineContactSpacing 3
par SingleCell.visualizer.dataLinkVisualizer lineContactMode "\"rectangular\""
attr enum circular,rectangular
par SingleCell.visualizer.dataLinkVisualizer labelFormat "\"%n\""
par SingleCell.visualizer.dataLinkVisualizer labelFont "\"<default>, 8px\""
par SingleCell.visualizer.dataLinkVisualizer labelColor "\"darkcyan\""
par SingleCell.visualizer.dataLinkVisualizer fadeOutMode "\"realTime\""
attr enum realTime,animationTime,simulationTime
par SingleCell.visualizer.dataLinkVisualizer fadeOutTime 1s
attr unit s
par SingleCell.visualizer.dataLinkVisualizer fadeOutAnimationSpeed 0
par SingleCell.visualizer.dataLinkVisualizer holdAnimationTime 0s
attr unit s
par SingleCell.visualizer.dataLinkVisualizer zIndex 2
par SingleCell.visualizer.linkBreakVisualizer typename "\"inet.visualizer.canvas.linklayer.LinkBreakCanvasVisualizer\""
par SingleCell.visualizer.linkBreakVisualizer visualizationTargetModule "\"^.^\""
par SingleCell.visualizer.linkBreakVisualizer visualizationSubjectModule "\"^.^\""
par SingleCell.visualizer.linkBreakVisualizer tags "\"\""
par SingleCell.visualizer.linkBreakVisualizer displayLinkBreaks false
par SingleCell.visualizer.linkBreakVisualizer nodeFilter "\"*\""
attr mutable ""
par SingleCell.visualizer.linkBreakVisualizer interfaceFilter "\"*\""
attr mutable ""
par SingleCell.visualizer.linkBreakVisualizer packetFilter "(omnetpp::cValueHolder)holder: \"*\""
attr mutable ""
par SingleCell.visualizer.linkBreakVisualizer icon "\"status/stop\""
par SingleCell.visualizer.linkBreakVisualizer iconTintAmount 0
par SingleCell.visualizer.linkBreakVisualizer iconTintColor "\"\""
par SingleCell.visualizer.linkBreakVisualizer fadeOutMode "\"realTime\""
attr enum realTime,animationTime,simulationTime
par SingleCell.visualizer.linkBreakVisualizer fadeOutTime 1s
attr unit s
par SingleCell.visualizer.linkBreakVisualizer fadeOutAnimationSpeed 0
par SingleCell.visualizer.linkBreakVisualizer zIndex 2
par SingleCell.visualizer.ieee80211Visualizer typename "\"inet.visualizer.canvas.linklayer.Ieee80211CanvasVisualizer\""
par SingleCell.visualizer.ieee80211Visualizer visualizationTargetModule "\"^.^\""
par SingleCell.visualizer.ieee80211Visualizer visualizationSubjectModule "\"^.^\""
par SingleCell.visualizer.ieee80211Visualizer tags "\"\""
par SingleCell.visualizer.ieee80211Visualizer networkNodeVisualizerModule "\"^.networkNodeVisualizer\""
par SingleCell.visualizer.ieee80211Visualizer displayAssociations false
par SingleCell.visualizer.ieee80211Visualizer nodeFilter "\"*\""
attr mutable ""
par SingleCell.visualizer.ieee80211Visualizer interfaceFilter "\"*\""
attr mutable ""
par SingleCell.visualizer.ieee80211Visualizer minPower -85dBm
attr unit dBm
par SingleCell.visualizer.ieee80211Visualizer maxPower -50dBm
attr unit dBm
par SingleCell.visualizer.ieee80211Visualizer icons "\"misc/signal_power_0 misc/signal_power_1 misc/signal_power_2 misc/signal_power_3\""
par SingleCell.visualizer.ieee80211Visualizer iconColor "\"dark\""
par SingleCell.visualizer.ieee80211Visualizer labelFont "\"<default>\""
par SingleCell.visualizer.ieee80211Visualizer labelColor "\"black\""
par SingleCell.visualizer.ieee80211Visualizer placementHint "\"top\""
par SingleCell.visualizer.ieee80211Visualizer placementPriority 0
par SingleCell.visualizer.ieee80211Visualizer zIndex 2
par SingleCell.visualizer.networkRouteVisualizer typename "\"inet.visualizer.canvas.networklayer.NetworkRouteCanvasVisualizer\""
par SingleCell.visualizer.networkRouteVisualizer visualizationTargetModule "\"^.^\""
par SingleCell.visualizer.networkRouteVisualizer visualizationSubjectModule "\"^.^\""
par SingleCell.visualizer.networkRouteVisualizer tags "\"\""
par SingleCell.visualizer.networkRouteVisualizer displayRoutes false
par SingleCell.visualizer.networkRouteVisualizer startPathSignal "\"packetReceivedFromUpper\""
par SingleCell.visualizer.networkRouteVisualizer extendPathSignal "\"packetReceivedFromLower\""
par SingleCell.visualizer.networkRouteVisualizer endPathSignal "\"packetSentToUpper\""
par SingleCell.visualizer.networkRouteVisualizer nodeFilter "\"*\""
attr mutable ""
par SingleCell.visualizer.networkRouteVisualizer packetFilter "(omnetpp::cValueHolder)holder: \"*\""
attr mutable ""
par SingleCell.visualizer.networkRouteVisualizer lineColor "\"dark\""
par SingleCell.visualizer.networkRouteVisualizer lineStyle "\"solid\""
par SingleCell.visualizer.networkRouteVisualizer lineWidth 3
par SingleCell.visualizer.networkRouteVisualizer lineSmooth false
par SingleCell.visualizer.networkRouteVisualizer lineShift 16
par SingleCell.visualizer.networkRouteVisualizer lineShiftMode "\"normal\""
par SingleCell.visualizer.networkRouteVisualizer lineContactSpacing 3
par SingleCell.visualizer.networkRouteVisualizer lineContactMode "\"rectangular\""
attr enum circular,rectangular
par SingleCell.visualizer.networkRouteVisualizer labelFormat "\"%n\""
par SingleCell.visualizer.networkRouteVisualizer labelFont "\"<default>, 8px\""
par SingleCell.visualizer.networkRouteVisualizer labelColor "\"\""
par SingleCell.visualizer.networkRouteVisualizer fadeOutMode "\"realTime\""
attr enum realTime,animationTime,simulationTime
par SingleCell.visualizer.networkRouteVisualizer fadeOutTime 1s
attr unit s
par SingleCell.visualizer.networkRouteVisualizer fadeOutAnimationSpeed 0
par SingleCell.visualizer.networkRouteVisualizer zIndex 3
par SingleCell.visualizer.routingTableVisualizer typename "\"inet.visualizer.canvas.networklayer.RoutingTableCanvasVisualizer\""
par SingleCell.visualizer.routingTableVisualizer visualizationTargetModule "\"^.^\""
par SingleCell.visualizer.routingTableVisualizer visualizationSubjectModule "\"^.^\""
par SingleCell.visualizer.routingTableVisualizer tags "\"\""
par SingleCell.visualizer.routingTableVisualizer displayRoutingTables false
par SingleCell.visualizer.routingTableVisualizer displayRoutesIndividually true
par SingleCell.visualizer.routingTableVisualizer displayLabels true
par SingleCell.visualizer.routingTableVisualizer destinationFilter "\"*\""
attr mutable ""
par SingleCell.visualizer.routingTableVisualizer nodeFilter "\"*\""
attr mutable ""
par SingleCell.visualizer.routingTableVisualizer lineColor "\"black\""
par SingleCell.visualizer.routingTableVisualizer lineStyle "\"solid\""
par SingleCell.visualizer.routingTableVisualizer lineWidth 2
par SingleCell.visualizer.routingTableVisualizer lineShift 16
par SingleCell.visualizer.routingTableVisualizer lineShiftMode "\"normal\""
par SingleCell.visualizer.routingTableVisualizer lineContactSpacing 3
par SingleCell.visualizer.routingTableVisualizer lineContactMode "\"rectangular\""
attr enum circular,rectangular
par SingleCell.visualizer.routingTableVisualizer labelFormat "\"%d/%m -> %g (%n)\""
attr mutable ""
par SingleCell.visualizer.routingTableVisualizer labelFont "\"<default>, 8px\""
par SingleCell.visualizer.routingTableVisualizer labelColor "\"black\""
par SingleCell.visualizer.routingTableVisualizer zIndex 0
par SingleCell.visualizer.transportRouteVisualizer typename "\"inet.visualizer.canvas.transportlayer.TransportRouteCanvasVisualizer\""
par SingleCell.visualizer.transportRouteVisualizer visualizationTargetModule "\"^.^\""
par SingleCell.visualizer.transportRouteVisualizer visualizationSubjectModule "\"^.^\""
par SingleCell.visualizer.transportRouteVisualizer tags "\"\""
par SingleCell.visualizer.transportRouteVisualizer displayRoutes false
par SingleCell.visualizer.transportRouteVisualizer startPathSignal "\"packetReceivedFromUpper\""
par SingleCell.visualizer.transportRouteVisualizer extendPathSignal "\"packetReceivedFromLower\""
par SingleCell.visualizer.transportRouteVisualizer endPathSignal "\"packetSentToUpper\""
par SingleCell.visualizer.transportRouteVisualizer nodeFilter "\"*\""
attr mutable ""
par SingleCell.visualizer.transportRouteVisualizer packetFilter "(omnetpp::cValueHolder)holder: \"*\""
attr mutable ""
par SingleCell.visualizer.transportRouteVisualizer lineColor "\"dark\""
par SingleCell.visualizer.transportRouteVisualizer lineStyle "\"solid\""
par SingleCell.visualizer.transportRouteVisualizer lineWidth 3
par SingleCell.visualizer.transportRouteVisualizer lineSmooth false
par SingleCell.visualizer.transportRouteVisualizer lineShift 16
par SingleCell.visualizer.transportRouteVisualizer lineShiftMode "\"normal\""
par SingleCell.visualizer.transportRouteVisualizer lineContactSpacing 3
par SingleCell.visualizer.transportRouteVisualizer lineContactMode "\"rectangular\""
attr enum circular,rectangular
par SingleCell.visualizer.transportRouteVisualizer labelFormat "\"%n\""
par SingleCell.visualizer.transportRouteVisualizer labelFont "\"<default>, 8px\""
par SingleCell.visualizer.transportRouteVisualizer labelColor "\"\""
par SingleCell.visualizer.transportRouteVisualizer fadeOutMode "\"realTime\""
attr enum realTime,animationTime,simulationTime
par SingleCell.visualizer.transportRouteVisualizer fadeOutTime 1s
attr unit s
par SingleCell.visualizer.transportRouteVisualizer fadeOutAnimationSpeed 0
par SingleCell.visualizer.transportRouteVisualizer zIndex 4
par SingleCell.visualizer.transportConnectionVisualizer typename "\"inet.visualizer.canvas.transportlayer.TransportConnectionCanvasVisualizer\""
par SingleCell.visualizer.transportConnectionVisualizer visualizationTargetModule "\"^.^\""
par SingleCell.visualizer.transportConnectionVisualizer visualizationSubjectModule "\"^.^\""
par SingleCell.visualizer.transportConnectionVisualizer tags "\"\""
par SingleCell.visualizer.transportConnectionVisualizer networkNodeVisualizerModule "\"^.networkNodeVisualizer\""
par SingleCell.visualizer.transportConnectionVisualizer displayTransportConnections false
par SingleCell.visualizer.transportConnectionVisualizer sourceNodeFilter "\"*\""
attr mutable ""
par SingleCell.visualizer.transportConnectionVisualizer sourcePortFilter "\"*\""
attr mutable ""
par SingleCell.visualizer.transportConnectionVisualizer destinationNodeFilter "\"*\""
attr mutable ""
par SingleCell.visualizer.transportConnectionVisualizer destinationPortFilter "\"*\""
attr mutable ""
par SingleCell.visualizer.transportConnectionVisualizer icon "\"misc/marker_s\""
par SingleCell.visualizer.transportConnectionVisualizer iconColor "\"dark\""
par SingleCell.visualizer.transportConnectionVisualizer labelFont "\"<default>\""
par SingleCell.visualizer.transportConnectionVisualizer labelColor "\"black\""
par SingleCell.visualizer.transportConnectionVisualizer placementHint "\"top\""
par SingleCell.visualizer.transportConnectionVisualizer placementPriority 0
par SingleCell.visualizer.transportConnectionVisualizer zIndex 4
par SingleCell.visualizer.failureProtectionConfigurationVisualizer typename "\"inet.visualizer.canvas.configurator.FailureProtectionConfigurationCanvasVisualizer\""
par SingleCell.visualizer.failureProtectionConfigurationVisualizer visualizationTargetModule "\"^.^\""
par SingleCell.visualizer.failureProtectionConfigurationVisualizer visualizationSubjectModule "\"^.^\""
par SingleCell.visualizer.failureProtectionConfigurationVisualizer tags "\"\""
par SingleCell.visualizer.failureProtectionConfigurationVisualizer displayTrees false
par SingleCell.visualizer.failureProtectionConfigurationVisualizer lineColor "\"dark\""
par SingleCell.visualizer.failureProtectionConfigurationVisualizer lineStyle "\"solid\""
par SingleCell.visualizer.failureProtectionConfigurationVisualizer lineWidth 3
par SingleCell.visualizer.failureProtectionConfigurationVisualizer lineSmooth false
par SingleCell.visualizer.failureProtectionConfigurationVisualizer lineShift 16
par SingleCell.visualizer.failureProtectionConfigurationVisualizer lineShiftMode "\"normal\""
par SingleCell.visualizer.failureProtectionConfigurationVisualizer lineContactSpacing 3
par SingleCell.visualizer.failureProtectionConfigurationVisualizer lineContactMode "\"rectangular\""
attr enum circular,rectangular
par SingleCell.visualizer.failureProtectionConfigurationVisualizer failureProtectionConfiguratorModule "\"failureProtectionConfigurator\""
par SingleCell.visualizer.failureProtectionConfigurationVisualizer streamFilter "\"*\""
par SingleCell.visualizer.failureProtectionConfigurationVisualizer zIndex 3
par SingleCell.visualizer.streamRedundancyConfigurationVisualizer typename "\"inet.visualizer.canvas.configurator.StreamRedundancyConfigurationCanvasVisualizer\""
par SingleCell.visualizer.streamRedundancyConfigurationVisualizer visualizationTargetModule "\"^.^\""
par SingleCell.visualizer.streamRedundancyConfigurationVisualizer visualizationSubjectModule "\"^.^\""
par SingleCell.visualizer.streamRedundancyConfigurationVisualizer tags "\"\""
par SingleCell.visualizer.streamRedundancyConfigurationVisualizer displayTrees false
par SingleCell.visualizer.streamRedundancyConfigurationVisualizer lineColor "\"dark\""
par SingleCell.visualizer.streamRedundancyConfigurationVisualizer lineStyle "\"solid\""
par SingleCell.visualizer.streamRedundancyConfigurationVisualizer lineWidth 3
par SingleCell.visualizer.streamRedundancyConfigurationVisualizer lineSmooth false
par SingleCell.visualizer.streamRedundancyConfigurationVisualizer lineShift 16
par SingleCell.visualizer.streamRedundancyConfigurationVisualizer lineShiftMode "\"normal\""
par SingleCell.visualizer.streamRedundancyConfigurationVisualizer lineContactSpacing 3
par SingleCell.visualizer.streamRedundancyConfigurationVisualizer lineContactMode "\"rectangular\""
attr enum circular,rectangular
par SingleCell.visualizer.streamRedundancyConfigurationVisualizer streamRedundancyConfiguratorModule "\"streamRedundancyConfigurator\""
par SingleCell.visualizer.streamRedundancyConfigurationVisualizer streamFilter "\"*\""
par SingleCell.visualizer.streamRedundancyConfigurationVisualizer zIndex 3
par SingleCell.visualizer typename "\"inet.visualizer.canvas.integrated.IntegratedCanvasVisualizer\""
par SingleCell.physicalEnvironment typename "\"inet.environment.common.PhysicalEnvironment\""
par SingleCell.physicalEnvironment coordinateSystemModule "\"\""
par SingleCell.physicalEnvironment temperature 293K
attr unit K
par SingleCell.physicalEnvironment spaceMinX "nan m"
attr unit m
par SingleCell.physicalEnvironment spaceMinY "nan m"
attr unit m
par SingleCell.physicalEnvironment spaceMinZ "nan m"
attr unit m
par SingleCell.physicalEnvironment spaceMaxX "nan m"
attr unit m
par SingleCell.physicalEnvironment spaceMaxY "nan m"
attr unit m
par SingleCell.physicalEnvironment spaceMaxZ "nan m"
attr unit m
par SingleCell.physicalEnvironment config "<environment>...</environment> at C:/Users/notaa/OneDrive/Desktop/omnetpp-6.1/samples/5GNetwork/\\walls.xml:1"
par SingleCell.channelControl typename "\"simu5g.world.radio.LteChannelControl\""
par SingleCell.channelControl coreDebug false
par SingleCell.channelControl pMax 20mW
attr unit mW
par SingleCell.channelControl sat -110dBm
attr unit dBm
par SingleCell.channelControl alpha 2
par SingleCell.channelControl carrierFrequency 2.4e+09Hz
attr unit Hz
par SingleCell.channelControl numChannels 1
par SingleCell.routingRecorder typename "\"inet.networklayer.ipv4.RoutingTableRecorder\""
par SingleCell.routingRecorder enabled false
par SingleCell.configurator typename "\"inet.networklayer.configurator.ipv4.Ipv4NetworkConfigurator\""
par SingleCell.configurator minLinkWeight 0.001
par SingleCell.configurator configureIsolatedNetworksSeparatly false
par SingleCell.configurator config "<config>...</config> at C:/Users/notaa/OneDrive/Desktop/omnetpp-6.1/samples/5GNetwork/\\./demo.xml:1"
par SingleCell.configurator assignAddresses true
par SingleCell.configurator assignUniqueAddresses true
par SingleCell.configurator assignDisjunctSubnetAddresses true
par SingleCell.configurator addStaticRoutes true
par SingleCell.configurator addDefaultRoutes true
par SingleCell.configurator addSubnetRoutes true
par SingleCell.configurator addDirectRoutes true
par SingleCell.configurator optimizeRoutes true
par SingleCell.configurator dumpTopology false
par SingleCell.configurator dumpLinks false
par SingleCell.configurator dumpAddresses false
par SingleCell.configurator dumpRoutes false
par SingleCell.configurator dumpConfig "\"\""
par SingleCell.binder typename "\"simu5g.common.binder.Binder\""
par SingleCell.binder blerShift 5
par SingleCell.binder maxDataRatePerRb 1.16Mbps
attr unit Mbps
par SingleCell.binder printTrafficGeneratorConfig false
par SingleCell.carrierAggregation.componentCarrier[0] typename "\"simu5g.common.carrierAggregation.ComponentCarrier\""
par SingleCell.carrierAggregation.componentCarrier[0] binderModule "\"binder\""
par SingleCell.carrierAggregation.componentCarrier[0] carrierFrequency 2GHz
attr unit GHz
par SingleCell.carrierAggregation.componentCarrier[0] numBands 50
par SingleCell.carrierAggregation.componentCarrier[0] numerologyIndex 0
par SingleCell.carrierAggregation.componentCarrier[0] useTdd false
par SingleCell.carrierAggregation.componentCarrier[0] tddNumSymbolsDl 7
par SingleCell.carrierAggregation.componentCarrier[0] tddNumSymbolsUl 7
par SingleCell.carrierAggregation typename "\"simu5g.common.carrierAggregation.CarrierAggregation\""
par SingleCell.carrierAggregation numComponentCarriers 1
par SingleCell.server.pppg$i[0].channel typename "\"ned.IdealChannel\""
par SingleCell.server.ppp[0].phys$o.channel typename "\"ned.IdealChannel\""
par SingleCell.server.interfaceTable typename "\"inet.networklayer.common.InterfaceTable\""
par SingleCell.server.interfaceTable displayAddresses false
par SingleCell.server.cb typename "\"inet.common.MessageDispatcher\""
par SingleCell.server.cb displayStringTextFormat "\"processed %p pk (%l)\""
par SingleCell.server.cb forwardServiceRegistration true
par SingleCell.server.cb forwardProtocolRegistration true
par SingleCell.server.bl typename "\"inet.common.MessageDispatcher\""
par SingleCell.server.bl displayStringTextFormat "\"processed %p pk (%l)\""
par SingleCell.server.bl forwardServiceRegistration true
par SingleCell.server.bl forwardProtocolRegistration true
par SingleCell.server.li typename "\"inet.common.MessageDispatcher\""
par SingleCell.server.li displayStringTextFormat "\"processed %p pk (%l)\""
par SingleCell.server.li forwardServiceRegistration true
par SingleCell.server.li forwardProtocolRegistration true
par SingleCell.server.lo[0].upperLayerIn.channel typename "\"ned.IdealChannel\""
par SingleCell.server.lo[0].lo.upperLayerOut.channel typename "\"ned.IdealChannel\""
par SingleCell.server.lo[0].lo typename "\"inet.linklayer.loopback.Loopback\""
par SingleCell.server.lo[0].lo interfaceTableModule "\"SingleCell.server.interfaceTable\""
par SingleCell.server.lo[0].lo mtu 4470B
attr unit B
scalar SingleCell.server.lo[0].lo rcvdPkFromHl:count 0
attr interpolationmode none
attr recordingmode count
attr source packetReceivedFromUpper
attr title "packets received from higher layer, count"
scalar SingleCell.server.lo[0].lo rcvdPkFromHl:sum(packetBytes) 0
attr interpolationmode none
attr recordingmode sum(packetBytes)
attr source packetReceivedFromUpper
attr title "packets received from higher layer, sum(packetBytes)"
scalar SingleCell.server.lo[0].lo passedUpPk:count 0
attr interpolationmode none
attr recordingmode count
attr source packetSentToUpper
attr title "packets passed to higher layer, count"
scalar SingleCell.server.lo[0].lo passedUpPk:sum(packetBytes) 0
attr interpolationmode none
attr recordingmode sum(packetBytes)
attr source packetSentToUpper
attr title "packets passed to higher layer, sum(packetBytes)"
par SingleCell.server.lo[0] typename "\"inet.linklayer.loopback.LoopbackInterface\""
par SingleCell.server.lo[0] displayStringTextFormat "\"%a (%i)\\n%m\""
par SingleCell.server.lo[0] recordPcap false
par SingleCell.server.lo[0] numPcapRecorders 0
par SingleCell.server.lo[0] interfaceTableModule "\"SingleCell.server.interfaceTable\""
scalar SingleCell.server.lo[0] packetDropInterfaceDown:count 0
attr interpolationmode none
attr recordingmode count
attr source packetDropReasonIsInterfaceDown(packetDropped)
attr title "packet drops: interface down, count"
scalar SingleCell.server.lo[0] packetDropInterfaceDown:sum(packetBytes) 0
attr interpolationmode none
attr recordingmode sum(packetBytes)
attr source packetDropReasonIsInterfaceDown(packetDropped)
attr title "packet drops: interface down, sum(packetBytes)"
scalar SingleCell.server.lo[0] packetDropNoCarrier:count 0
attr interpolationmode none
attr recordingmode count
attr source packetDropReasonIsNoCarrier(packetDropped)
attr title "packet drops: no carrier, count"
scalar SingleCell.server.lo[0] packetDropNoCarrier:sum(packetBytes) 0
attr interpolationmode none
attr recordingmode sum(packetBytes)
attr source packetDropReasonIsNoCarrier(packetDropped)
attr title "packet drops: no carrier, sum(packetBytes)"
par SingleCell.server.ppp[0].phys$i.channel typename "\"ned.IdealChannel\""
par SingleCell.server.ppp[0].ppp.phys$o.channel typename "\"ned.IdealChannel\""
par SingleCell.server.ppp[0].ppp.upperLayerOut.channel typename "\"ned.IdealChannel\""
par SingleCell.server.ppp[0].upperLayerIn.channel typename "\"ned.IdealChannel\""
par SingleCell.server.ppp[0].queue typename "\"inet.queueing.queue.DropTailQueue\""
par SingleCell.server.ppp[0].queue displayStringTextFormat "\"contains %p pk (%l) pushed %u\\npulled %o removed %r dropped %d\""
par SingleCell.server.ppp[0].queue packetCapacity 10000
par SingleCell.server.ppp[0].queue dataCapacity -1b
attr unit b
par SingleCell.server.ppp[0].queue dropperClass "\"inet::queueing::PacketAtCollectionEndDropper\""
par SingleCell.server.ppp[0].queue comparatorClass "\"\""
par SingleCell.server.ppp[0].queue bufferModule "\"\""
scalar SingleCell.server.ppp[0].queue queueLength:last 0
attr autoWarmupFilter false
attr interpolationmode sample-hold
attr recordingmode last
attr source "warmup(atomic(constant0(packetPushEnded) + count(packetPushStarted) - count(packetPulled) - count(packetRemoved) - count(packetDropped)))"
attr title "queue length, last"
attr unit pk
scalar SingleCell.server.ppp[0].queue queueLength:max 0
attr autoWarmupFilter false
attr interpolationmode sample-hold
attr recordingmode max
attr source "warmup(atomic(constant0(packetPushEnded) + count(packetPushStarted) - count(packetPulled) - count(packetRemoved) - count(packetDropped)))"
attr title "queue length, max"
attr unit pk
scalar SingleCell.server.ppp[0].queue queueLength:timeavg 0
attr autoWarmupFilter false
attr interpolationmode sample-hold
attr recordingmode timeavg
attr source "warmup(atomic(constant0(packetPushEnded) + count(packetPushStarted) - count(packetPulled) - count(packetRemoved) - count(packetDropped)))"
attr title "queue length, timeavg"
attr unit pk
scalar SingleCell.server.ppp[0].queue queueBitLength:last 0
attr autoWarmupFilter false
attr interpolationmode sample-hold
attr recordingmode last
attr source "warmup(atomic(constant0(packetPushEnded) + sum(packetLength(packetPushStarted)) - sum(packetLength(packetPulled)) - sum(packetLength(packetRemoved)) - sum(packetLength(packetDropped))))"
attr title "queue bit length, last"
attr unit b
scalar SingleCell.server.ppp[0].queue queueBitLength:max 0
attr autoWarmupFilter false
attr interpolationmode sample-hold
attr recordingmode max
attr source "warmup(atomic(constant0(packetPushEnded) + sum(packetLength(packetPushStarted)) - sum(packetLength(packetPulled)) - sum(packetLength(packetRemoved)) - sum(packetLength(packetDropped))))"
attr title "queue bit length, max"
attr unit b
scalar SingleCell.server.ppp[0].queue queueBitLength:timeavg 0
attr autoWarmupFilter false
attr interpolationmode sample-hold
attr recordingmode timeavg
attr source "warmup(atomic(constant0(packetPushEnded) + sum(packetLength(packetPushStarted)) - sum(packetLength(packetPulled)) - sum(packetLength(packetRemoved)) - sum(packetLength(packetDropped))))"
attr title "queue bit length, timeavg"
attr unit b
statistic SingleCell.server.ppp[0].queue queueingTime:histogram
field count 1198
field mean 0
field stddev 0
field min 0
field max 0
field sum 0
field sqrsum 0
attr interpolationmode none
attr recordingmode histogram
attr source queueingTime(packetPulled)
attr title "queueing times"
attr unit s
bin	-inf	0
bin	-0.5	0
bin	-0.48	0
bin	-0.46	0
bin	-0.44	0
bin	-0.42	0
bin	-0.4	0
bin	-0.38	0
bin	-0.36	0
bin	-0.34	0
bin	-0.32	0
bin	-0.3	0
bin	-0.28	0
bin	-0.26	0
bin	-0.24	0
bin	-0.22	0
bin	-0.2	0
bin	-0.18	0
bin	-0.16	0
bin	-0.14	0
bin	-0.12	0
bin	-0.1	0
bin	-0.08	0
bin	-0.06	0
bin	-0.04	0
bin	-0.02	0
bin	0	1198
bin	0.02	0
bin	0.04	0
bin	0.06	0
bin	0.08	0
bin	0.1	0
bin	0.12	0
bin	0.14	0
bin	0.16	0
bin	0.18	0
bin	0.2	0
bin	0.22	0
bin	0.24	0
bin	0.26	0
bin	0.28	0
bin	0.3	0
bin	0.32	0
bin	0.34	0
bin	0.36	0
bin	0.38	0
bin	0.4	0
bin	0.42	0
bin	0.44	0
bin	0.46	0
bin	0.48	0
bin	0.5	0
scalar SingleCell.server.ppp[0].queue outgoingPackets:count 1198
attr recordingmode count
attr source packetPulled
attr title "outgoing packets, count"
attr unit pk
scalar SingleCell.server.ppp[0].queue outgoingPacketLengths:sum 9852352
attr interpolationmode none
attr recordingmode sum
attr source packetLength(packetPulled)
attr title "outgoing packet lengths, sum"
attr unit b
statistic SingleCell.server.ppp[0].queue outgoingPacketLengths:histogram
field count 1198
field mean 8224
field stddev 0
field min 8224
field max 8224
field sum 9852352
field sqrsum 81025742848
attr interpolationmode none
attr recordingmode histogram
attr source packetLength(packetPulled)
attr title "outgoing packet lengths"
attr unit b
bin	-inf	0
bin	8223	0
bin	8224	1198
bin	8225	0
statistic SingleCell.server.ppp[0].queue flowQueueingTime:histogram
field count 0
field mean nan
field stddev nan
field min nan
field max nan
field sum 0
field sqrsum 0
attr interpolationmode none
attr recordingmode histogram
attr source queueingTime(demuxFlow(packetPulled))
attr title "flow queueing times"
attr unit s
bin	-inf	0
bin	0	0
bin	1	0
scalar SingleCell.server.ppp[0].queue incomingPackets:count 1198
attr recordingmode count
attr source packetPushStarted
attr title "incoming packets, count"
attr unit pk
scalar SingleCell.server.ppp[0].queue incomingPacketLengths:sum 9852352
attr interpolationmode none
attr recordingmode sum
attr source packetLength(packetPushStarted)
attr title "incoming packet lengths, sum"
attr unit b
statistic SingleCell.server.ppp[0].queue incomingPacketLengths:histogram
field count 1198
field mean 8224
field stddev 0
field min 8224
field max 8224
field sum 9852352
field sqrsum 81025742848
attr interpolationmode none
attr recordingmode histogram
attr source packetLength(packetPushStarted)
attr title "incoming packet lengths"
attr unit b
bin	-inf	0
bin	8223	0
bin	8224	1198
bin	8225	0
scalar SingleCell.server.ppp[0].queue droppedPacketsQueueOverflow:count 0
attr interpolationmode none
attr recordingmode count
attr source packetDropReasonIsQueueOverflow(packetDropped)
attr title "dropped packets: queue overflow, count"
attr unit pk
scalar SingleCell.server.ppp[0].queue droppedPacketLengthsQueueOverflow:sum 0
attr interpolationmode none
attr recordingmode sum
attr source packetLength(packetDropReasonIsQueueOverflow(packetDropped))
attr title "dropped packet lengths: queue overflow, sum"
attr unit b
par SingleCell.server.ppp[0].ppp typename "\"inet.linklayer.ppp.Ppp\""
par SingleCell.server.ppp[0].ppp interfaceTableModule "\"SingleCell.server.interfaceTable\""
par SingleCell.server.ppp[0].ppp displayStringTextFormat "\"rate: %b\\nsent: %s, rcvd: %r\\nqueue: %q, drop: %d\""
par SingleCell.server.ppp[0].ppp sendRawBytes false
par SingleCell.server.ppp[0].ppp mtu 4470B
attr unit B
par SingleCell.server.ppp[0].ppp stopOperationExtraTime -1s
attr unit s
par SingleCell.server.ppp[0].ppp stopOperationTimeout 2s
attr unit s
scalar SingleCell.server.ppp[0].ppp txPk:count 1198
attr interpolationmode none
attr recordingmode count
attr source packetSentToLower
attr title "packets transmitted, count"
scalar SingleCell.server.ppp[0].ppp txPk:sum(packetBytes) 1239930
attr interpolationmode none
attr recordingmode sum(packetBytes)
attr source packetSentToLower
attr title "packets transmitted, sum(packetBytes)"
scalar SingleCell.server.ppp[0].ppp rcvdPkFromHl:count 1198
attr interpolationmode none
attr recordingmode count
attr source packetReceivedFromUpper
attr title "packets received from higher layer, count"
scalar SingleCell.server.ppp[0].ppp rcvdPkFromHl:sum(packetBytes) 1231544
attr interpolationmode none
attr recordingmode sum(packetBytes)
attr source packetReceivedFromUpper
attr title "packets received from higher layer, sum(packetBytes)"
scalar SingleCell.server.ppp[0].ppp passedUpPk:count 0
attr interpolationmode none
attr recordingmode count
attr source packetSentToUpper
attr title "packets passed to higher layer, count"
scalar SingleCell.server.ppp[0].ppp passedUpPk:sum(packetBytes) 0
attr interpolationmode none
attr recordingmode sum(packetBytes)
attr source packetSentToUpper
attr title "packets passed to higher layer, sum(packetBytes)"
scalar SingleCell.server.ppp[0].ppp packetDropIncorrectlyReceived:count 0
attr interpolationmode none
attr recordingmode count
attr source packetDropReasonIsIncorrectlyReceived(packetDropped)
attr title "packet drop: incorrectly received, count"
scalar SingleCell.server.ppp[0].ppp packetDropIncorrectlyReceived:sum(packetBytes) 0
attr interpolationmode none
attr recordingmode sum(packetBytes)
attr source packetDropReasonIsIncorrectlyReceived(packetDropped)
attr title "packet drop: incorrectly received, sum(packetBytes)"
scalar SingleCell.server.ppp[0].ppp packetDropInterfaceDown:count 0
attr interpolationmode none
attr recordingmode count
attr source packetDropReasonIsInterfaceDown(packetDropped)
attr title "packet drop: interface down, count"
scalar SingleCell.server.ppp[0].ppp packetDropInterfaceDown:sum(packetBytes) 0
attr interpolationmode none
attr recordingmode sum(packetBytes)
attr source packetDropReasonIsInterfaceDown(packetDropped)
attr title "packet drop: interface down, sum(packetBytes)"
scalar SingleCell.server.ppp[0].ppp rxPkOk:count 0
attr interpolationmode none
attr recordingmode count
attr source rxPkOk
attr title "packets received OK, count"
scalar SingleCell.server.ppp[0].ppp rxPkOk:sum(packetBytes) 0
attr interpolationmode none
attr recordingmode sum(packetBytes)
attr source rxPkOk
attr title "packets received OK, sum(packetBytes)"
scalar SingleCell.server.ppp[0].ppp transmissionState:timeavg 3.3064800000001e-05
attr interpolationmode sample-hold
attr recordingmode timeavg
attr source transmissionStateChanged
attr title "tx state, timeavg"
par SingleCell.server.ppp[0] typename "\"inet.linklayer.ppp.PppInterface\""
par SingleCell.server.ppp[0] displayStringTextFormat "\"%a (%i)\\n%m\""
par SingleCell.server.ppp[0] recordPcap false
par SingleCell.server.ppp[0] numPcapRecorders 0
par SingleCell.server.ppp[0] interfaceTableModule "\"SingleCell.server.interfaceTable\""
scalar SingleCell.server.ppp[0] packetDropInterfaceDown:count 0
attr interpolationmode none
attr recordingmode count
attr source packetDropReasonIsInterfaceDown(packetDropped)
attr title "packet drops: interface down, count"
scalar SingleCell.server.ppp[0] packetDropInterfaceDown:sum(packetBytes) 0
attr interpolationmode none
attr recordingmode sum(packetBytes)
attr source packetDropReasonIsInterfaceDown(packetDropped)
attr title "packet drops: interface down, sum(packetBytes)"
scalar SingleCell.server.ppp[0] packetDropNoCarrier:count 0
attr interpolationmode none
attr recordingmode count
attr source packetDropReasonIsNoCarrier(packetDropped)
attr title "packet drops: no carrier, count"
scalar SingleCell.server.ppp[0] packetDropNoCarrier:sum(packetBytes) 0
attr interpolationmode none
attr recordingmode sum(packetBytes)
attr source packetDropReasonIsNoCarrier(packetDropped)
attr title "packet drops: no carrier, sum(packetBytes)"
par SingleCell.server.ipv4.transportIn.channel typename "\"ned.IdealChannel\""
par SingleCell.server.ipv4.up.out[0].channel typename "\"ned.IdealChannel\""
par SingleCell.server.ipv4.lp.out[2].channel typename "\"ned.IdealChannel\""
par SingleCell.server.ipv4.ifIn.channel typename "\"ned.IdealChannel\""
par SingleCell.server.ipv4.configurator typename "\"inet.networklayer.configurator.ipv4.Ipv4NodeConfigurator\""
par SingleCell.server.ipv4.configurator interfaceTableModule "\"SingleCell.server.interfaceTable\""
par SingleCell.server.ipv4.configurator routingTableModule "\"SingleCell.server.ipv4.routingTable\""
par SingleCell.server.ipv4.configurator networkConfiguratorModule "\"configurator\""
par SingleCell.server.ipv4.configurator configureRoutingTable true
par SingleCell.server.ipv4.routingTable typename "\"inet.networklayer.ipv4.Ipv4RoutingTable\""
par SingleCell.server.ipv4.routingTable interfaceTableModule "\"SingleCell.server.interfaceTable\""
par SingleCell.server.ipv4.routingTable routerId "\"auto\""
par SingleCell.server.ipv4.routingTable netmaskRoutes "\"*\""
par SingleCell.server.ipv4.routingTable forwarding false
par SingleCell.server.ipv4.routingTable multicastForwarding false
par SingleCell.server.ipv4.routingTable useAdminDist false
par SingleCell.server.ipv4.routingTable routingFile "\"\""
par SingleCell.server.ipv4.natTable typename "\"inet.networklayer.ipv4.Ipv4NatTable\""
par SingleCell.server.ipv4.natTable networkProtocolModule "\"^.ip\""
par SingleCell.server.ipv4.natTable config "<config/> at content:1"
par SingleCell.server.ipv4.up typename "\"inet.common.MessageDispatcher\""
par SingleCell.server.ipv4.up displayStringTextFormat "\"processed %p pk (%l)\""
par SingleCell.server.ipv4.up forwardServiceRegistration true
par SingleCell.server.ipv4.up forwardProtocolRegistration true
par SingleCell.server.ipv4.igmp typename "\"inet.networklayer.ipv4.Igmpv2\""
par SingleCell.server.ipv4.igmp interfaceTableModule "\"SingleCell.server.interfaceTable\""
par SingleCell.server.ipv4.igmp routingTableModule "\"SingleCell.server.ipv4.routingTable\""
par SingleCell.server.ipv4.igmp crcMode "\"declared\""
attr enum declared,computed
par SingleCell.server.ipv4.igmp enabled true
par SingleCell.server.ipv4.igmp robustnessVariable 2
par SingleCell.server.ipv4.igmp queryInterval 125s
attr unit s
par SingleCell.server.ipv4.igmp queryResponseInterval 10s
attr unit s
par SingleCell.server.ipv4.igmp groupMembershipInterval 260s
attr unit s
par SingleCell.server.ipv4.igmp otherQuerierPresentInterval 255s
attr unit s
par SingleCell.server.ipv4.igmp startupQueryInterval 31.25s
attr unit s
par SingleCell.server.ipv4.igmp startupQueryCount 2
par SingleCell.server.ipv4.igmp lastMemberQueryInterval 1s
attr unit s
par SingleCell.server.ipv4.igmp lastMemberQueryCount 2
par SingleCell.server.ipv4.igmp unsolicitedReportInterval 10s
attr unit s
par SingleCell.server.ipv4.icmp typename "\"inet.networklayer.ipv4.Icmp\""
par SingleCell.server.ipv4.icmp interfaceTableModule "\"SingleCell.server.interfaceTable\""
par SingleCell.server.ipv4.icmp routingTableModule "\"SingleCell.server.ipv4.routingTable\""
par SingleCell.server.ipv4.icmp crcMode "\"declared\""
attr enum declared,computed
attr mutable ""
par SingleCell.server.ipv4.icmp quoteLength 8B
attr mutable ""
attr unit B
par SingleCell.server.ipv4.mp typename "\"inet.common.MessageDispatcher\""
par SingleCell.server.ipv4.mp displayStringTextFormat "\"processed %p pk (%l)\""
par SingleCell.server.ipv4.mp forwardServiceRegistration true
par SingleCell.server.ipv4.mp forwardProtocolRegistration true
par SingleCell.server.ipv4.ip typename "\"inet.networklayer.ipv4.Ipv4\""
par SingleCell.server.ipv4.ip interfaceTableModule "\"SingleCell.server.interfaceTable\""
par SingleCell.server.ipv4.ip routingTableModule "\"SingleCell.server.ipv4.routingTable\""
par SingleCell.server.ipv4.ip arpModule "\"SingleCell.server.ipv4.arp\""
par SingleCell.server.ipv4.ip icmpModule "\"SingleCell.server.ipv4.icmp\""
par SingleCell.server.ipv4.ip crcMode "\"declared\""
attr enum declared,computed
par SingleCell.server.ipv4.ip timeToLive 32
par SingleCell.server.ipv4.ip multicastTimeToLive 32
par SingleCell.server.ipv4.ip fragmentTimeout 60s
attr unit s
par SingleCell.server.ipv4.ip limitedBroadcast false
par SingleCell.server.ipv4.ip directBroadcastInterfaces "\"\""
scalar SingleCell.server.ipv4.ip packetDropAddressResolutionFailed:count 0
attr interpolationmode none
attr recordingmode count
attr source packetDropReasonIsAddressResolutionFailed(packetDropped)
attr title "packet drop: address resolution failed, count"
scalar SingleCell.server.ipv4.ip packetDropAddressResolutionFailed:sum(packetBytes) 0
attr interpolationmode none
attr recordingmode sum(packetBytes)
attr source packetDropReasonIsAddressResolutionFailed(packetDropped)
attr title "packet drop: address resolution failed, sum(packetBytes)"
scalar SingleCell.server.ipv4.ip packetDropHopLimitReached:count 0
attr interpolationmode none
attr recordingmode count
attr source packetDropReasonIsHopLimitReached(packetDropped)
attr title "packet drop: hop limit reached, count"
scalar SingleCell.server.ipv4.ip packetDropHopLimitReached:sum(packetBytes) 0
attr interpolationmode none
attr recordingmode sum(packetBytes)
attr source packetDropReasonIsHopLimitReached(packetDropped)
attr title "packet drop: hop limit reached, sum(packetBytes)"
scalar SingleCell.server.ipv4.ip packetDropForwardingDisabled:count 0
attr interpolationmode none
attr recordingmode count
attr source packetDropReasonIsForwardingDisabled(packetDropped)
attr title "packet drop: forwarding disabled, count"
scalar SingleCell.server.ipv4.ip packetDropForwardingDisabled:sum(packetBytes) 0
attr interpolationmode none
attr recordingmode sum(packetBytes)
attr source packetDropReasonIsForwardingDisabled(packetDropped)
attr title "packet drop: forwarding disabled, sum(packetBytes)"
scalar SingleCell.server.ipv4.ip packetDropNoInterfaceFound:count 0
attr interpolationmode none
attr recordingmode count
attr source packetDropReasonIsNoInterfaceFound(packetDropped)
attr title "packet drop: no interface found, count"
scalar SingleCell.server.ipv4.ip packetDropNoInterfaceFound:sum(packetBytes) 0
attr interpolationmode none
attr recordingmode sum(packetBytes)
attr source packetDropReasonIsNoInterfaceFound(packetDropped)
attr title "packet drop: no interface found, sum(packetBytes)"
scalar SingleCell.server.ipv4.ip packetDropNoRouteFound:count 0
attr interpolationmode none
attr recordingmode count
attr source packetDropReasonIsNoRouteFound(packetDropped)
attr title "packet drop: no route found, count"
scalar SingleCell.server.ipv4.ip packetDropNoRouteFound:sum(packetBytes) 0
attr interpolationmode none
attr recordingmode sum(packetBytes)
attr source packetDropReasonIsNoRouteFound(packetDropped)
attr title "packet drop: no route found, sum(packetBytes)"
scalar SingleCell.server.ipv4.ip packetDropUndefined:count 0
attr interpolationmode none
attr recordingmode count
attr source packetDropReasonIsUndefined(packetDropped)
attr title "packet drop: undefined, count"
scalar SingleCell.server.ipv4.ip packetDropUndefined:sum(packetBytes) 0
attr interpolationmode none
attr recordingmode sum(packetBytes)
attr source packetDropReasonIsUndefined(packetDropped)
attr title "packet drop: undefined, sum(packetBytes)"
par SingleCell.server.ipv4.arp typename "\"inet.networklayer.arp.ipv4.Arp\""
par SingleCell.server.ipv4.arp interfaceTableModule "\"SingleCell.server.interfaceTable\""
par SingleCell.server.ipv4.arp routingTableModule "\"SingleCell.server.ipv4.routingTable\""
par SingleCell.server.ipv4.arp retryTimeout 1s
attr unit s
par SingleCell.server.ipv4.arp retryCount 3
par SingleCell.server.ipv4.arp cacheTimeout 120s
attr unit s
par SingleCell.server.ipv4.arp proxyArpInterfaces "\"\""
scalar SingleCell.server.ipv4.arp arpReplySent:count 0
attr recordingmode count
attr source arpReplySent
attr title "ARP replies sent, count"
scalar SingleCell.server.ipv4.arp arpReplySent:sum(packetBytes) 0
attr recordingmode sum(packetBytes)
attr source arpReplySent
attr title "ARP replies sent, sum(packetBytes)"
scalar SingleCell.server.ipv4.arp arpRequestSent:count 0
attr recordingmode count
attr source arpRequestSent
attr title "ARP request sent, count"
scalar SingleCell.server.ipv4.arp arpRequestSent:sum(packetBytes) 0
attr recordingmode sum(packetBytes)
attr source arpRequestSent
attr title "ARP request sent, sum(packetBytes)"
scalar SingleCell.server.ipv4.arp arpResolutionFailed:count 0
attr recordingmode count
attr title "ARP failed resolutions, count"
scalar SingleCell.server.ipv4.arp arpResolutionCompleted:count 0
attr recordingmode count
attr title "ARP completed resolutions, count"
scalar SingleCell.server.ipv4.arp arpResolutionInitiated:count 0
attr recordingmode count
attr title "ARP initiated resolutions, count"
par SingleCell.server.ipv4.lp typename "\"inet.common.MessageDispatcher\""
par SingleCell.server.ipv4.lp displayStringTextFormat "\"processed %p pk (%l)\""
par SingleCell.server.ipv4.lp forwardServiceRegistration true
par SingleCell.server.ipv4.lp forwardProtocolRegistration true
par SingleCell.server.ipv4 typename "\"inet.networklayer.ipv4.Ipv4NetworkLayer\""
par SingleCell.server.ipv4 forwarding false
par SingleCell.server.ipv4 multicastForwarding false
par SingleCell.server.ipv4 interfaceTableModule "\"SingleCell.server.interfaceTable\""
par SingleCell.server.ipv4 displayStringTextFormat "\"%i\""
par SingleCell.server.nl typename "\"inet.common.MessageDispatcher\""
par SingleCell.server.nl displayStringTextFormat "\"processed %p pk (%l)\""
par SingleCell.server.nl forwardServiceRegistration true
par SingleCell.server.nl forwardProtocolRegistration true
par SingleCell.server.udp typename "\"inet.transportlayer.udp.Udp\""
par SingleCell.server.udp interfaceTableModule "\"SingleCell.server.interfaceTable\""
par SingleCell.server.udp icmpModule "\"^.ipv4.icmp\""
par SingleCell.server.udp icmpv6Module "\"^.ipv6.icmpv6\""
par SingleCell.server.udp crcMode "\"declared\""
attr enum disabled,declared,computed
par SingleCell.server.udp defaultMulticastLoop true
scalar SingleCell.server.udp packetReceived:count 0
attr interpolationmode none
attr recordingmode count
[...]
scalar SingleCell.ue[0].encap encapPk:sum(packetBytes) 0
attr interpolationmode none
attr recordingmode sum(packetBytes)
attr source encapPk
attr title "packets encapsulated, sum(packetBytes)"
scalar SingleCell.ue[0].encap pauseSent:count 0
attr recordingmode count
attr title "pause sent, count"
scalar SingleCell.ue[0].encap pauseSent:sum 0
attr recordingmode sum
attr title "pause sent, sum"
par SingleCell.ue[0].ipv4.transportIn.channel typename "\"ned.IdealChannel\""
par SingleCell.ue[0].ipv4.up.out[0].channel typename "\"ned.IdealChannel\""
par SingleCell.ue[0].ipv4.lp.out[2].channel typename "\"ned.IdealChannel\""
par SingleCell.ue[0].ipv4.ifIn.channel typename "\"ned.IdealChannel\""
par SingleCell.ue[0].ipv4.configurator typename "\"inet.networklayer.configurator.ipv4.Ipv4NodeConfigurator\""
par SingleCell.ue[0].ipv4.configurator interfaceTableModule "\"SingleCell.ue[0].interfaceTable\""
par SingleCell.ue[0].ipv4.configurator routingTableModule "\"SingleCell.ue[0].ipv4.routingTable\""
par SingleCell.ue[0].ipv4.configurator networkConfiguratorModule "\"configurator\""
par SingleCell.ue[0].ipv4.configurator configureRoutingTable true
par SingleCell.ue[0].ipv4.routingTable typename "\"inet.networklayer.ipv4.Ipv4RoutingTable\""
par SingleCell.ue[0].ipv4.routingTable interfaceTableModule "\"SingleCell.ue[0].interfaceTable\""
par SingleCell.ue[0].ipv4.routingTable routerId "\"auto\""
par SingleCell.ue[0].ipv4.routingTable netmaskRoutes "\"*\""
par SingleCell.ue[0].ipv4.routingTable forwarding false
par SingleCell.ue[0].ipv4.routingTable multicastForwarding false
par SingleCell.ue[0].ipv4.routingTable useAdminDist false
par SingleCell.ue[0].ipv4.routingTable routingFile "\"\""
par SingleCell.ue[0].ipv4.natTable typename "\"inet.networklayer.ipv4.Ipv4NatTable\""
par SingleCell.ue[0].ipv4.natTable networkProtocolModule "\"^.ip\""
par SingleCell.ue[0].ipv4.natTable config "<config/> at content:1"
par SingleCell.ue[0].ipv4.up typename "\"inet.common.MessageDispatcher\""
par SingleCell.ue[0].ipv4.up displayStringTextFormat "\"processed %p pk (%l)\""
par SingleCell.ue[0].ipv4.up forwardServiceRegistration true
par SingleCell.ue[0].ipv4.up forwardProtocolRegistration true
par SingleCell.ue[0].ipv4.igmp typename "\"inet.networklayer.ipv4.Igmpv2\""
par SingleCell.ue[0].ipv4.igmp interfaceTableModule "\"SingleCell.ue[0].interfaceTable\""
par SingleCell.ue[0].ipv4.igmp routingTableModule "\"SingleCell.ue[0].ipv4.routingTable\""
par SingleCell.ue[0].ipv4.igmp crcMode "\"declared\""
attr enum declared,computed
par SingleCell.ue[0].ipv4.igmp enabled true
par SingleCell.ue[0].ipv4.igmp robustnessVariable 2
par SingleCell.ue[0].ipv4.igmp queryInterval 125s
attr unit s
par SingleCell.ue[0].ipv4.igmp queryResponseInterval 10s
attr unit s
par SingleCell.ue[0].ipv4.igmp groupMembershipInterval 260s
attr unit s
par SingleCell.ue[0].ipv4.igmp otherQuerierPresentInterval 255s
attr unit s
par SingleCell.ue[0].ipv4.igmp startupQueryInterval 31.25s
attr unit s
par SingleCell.ue[0].ipv4.igmp startupQueryCount 2
par SingleCell.ue[0].ipv4.igmp lastMemberQueryInterval 1s
attr unit s
par SingleCell.ue[0].ipv4.igmp lastMemberQueryCount 2
par SingleCell.ue[0].ipv4.igmp unsolicitedReportInterval 10s
attr unit s
par SingleCell.ue[0].ipv4.icmp typename "\"inet.networklayer.ipv4.Icmp\""
par SingleCell.ue[0].ipv4.icmp interfaceTableModule "\"SingleCell.ue[0].interfaceTable\""
par SingleCell.ue[0].ipv4.icmp routingTableModule "\"SingleCell.ue[0].ipv4.routingTable\""
par SingleCell.ue[0].ipv4.icmp crcMode "\"declared\""
attr enum declared,computed
attr mutable ""
par SingleCell.ue[0].ipv4.icmp quoteLength 8B
attr mutable ""
attr unit B
par SingleCell.ue[0].ipv4.mp typename "\"inet.common.MessageDispatcher\""
par SingleCell.ue[0].ipv4.mp displayStringTextFormat "\"processed %p pk (%l)\""
par SingleCell.ue[0].ipv4.mp forwardServiceRegistration true
par SingleCell.ue[0].ipv4.mp forwardProtocolRegistration true
par SingleCell.ue[0].ipv4.ip typename "\"inet.networklayer.ipv4.Ipv4\""
par SingleCell.ue[0].ipv4.ip interfaceTableModule "\"SingleCell.ue[0].interfaceTable\""
par SingleCell.ue[0].ipv4.ip routingTableModule "\"SingleCell.ue[0].ipv4.routingTable\""
par SingleCell.ue[0].ipv4.ip arpModule "\"SingleCell.ue[0].ipv4.arp\""
par SingleCell.ue[0].ipv4.ip icmpModule "\"SingleCell.ue[0].ipv4.icmp\""
par SingleCell.ue[0].ipv4.ip crcMode "\"declared\""
attr enum declared,computed
par SingleCell.ue[0].ipv4.ip timeToLive 32
par SingleCell.ue[0].ipv4.ip multicastTimeToLive 32
par SingleCell.ue[0].ipv4.ip fragmentTimeout 60s
attr unit s
par SingleCell.ue[0].ipv4.ip limitedBroadcast false
par SingleCell.ue[0].ipv4.ip directBroadcastInterfaces "\"\""
scalar SingleCell.ue[0].ipv4.ip packetDropAddressResolutionFailed:count 0
attr interpolationmode none
attr recordingmode count
attr source packetDropReasonIsAddressResolutionFailed(packetDropped)
attr title "packet drop: address resolution failed, count"
scalar SingleCell.ue[0].ipv4.ip packetDropAddressResolutionFailed:sum(packetBytes) 0
attr interpolationmode none
attr recordingmode sum(packetBytes)
attr source packetDropReasonIsAddressResolutionFailed(packetDropped)
attr title "packet drop: address resolution failed, sum(packetBytes)"
scalar SingleCell.ue[0].ipv4.ip packetDropHopLimitReached:count 0
attr interpolationmode none
attr recordingmode count
attr source packetDropReasonIsHopLimitReached(packetDropped)
attr title "packet drop: hop limit reached, count"
scalar SingleCell.ue[0].ipv4.ip packetDropHopLimitReached:sum(packetBytes) 0
attr interpolationmode none
attr recordingmode sum(packetBytes)
attr source packetDropReasonIsHopLimitReached(packetDropped)
attr title "packet drop: hop limit reached, sum(packetBytes)"
scalar SingleCell.ue[0].ipv4.ip packetDropForwardingDisabled:count 0
attr interpolationmode none
attr recordingmode count
attr source packetDropReasonIsForwardingDisabled(packetDropped)
attr title "packet drop: forwarding disabled, count"
scalar SingleCell.ue[0].ipv4.ip packetDropForwardingDisabled:sum(packetBytes) 0
attr interpolationmode none
attr recordingmode sum(packetBytes)
attr source packetDropReasonIsForwardingDisabled(packetDropped)
attr title "packet drop: forwarding disabled, sum(packetBytes)"
scalar SingleCell.ue[0].ipv4.ip packetDropNoInterfaceFound:count 0
attr interpolationmode none
attr recordingmode count
attr source packetDropReasonIsNoInterfaceFound(packetDropped)
attr title "packet drop: no interface found, count"
scalar SingleCell.ue[0].ipv4.ip packetDropNoInterfaceFound:sum(packetBytes) 0
attr interpolationmode none
attr recordingmode sum(packetBytes)
attr source packetDropReasonIsNoInterfaceFound(packetDropped)
attr title "packet drop: no interface found, sum(packetBytes)"
scalar SingleCell.ue[0].ipv4.ip packetDropNoRouteFound:count 0
attr interpolationmode none
attr recordingmode count
attr source packetDropReasonIsNoRouteFound(packetDropped)
attr title "packet drop: no route found, count"
scalar SingleCell.ue[0].ipv4.ip packetDropNoRouteFound:sum(packetBytes) 0
attr interpolationmode none
attr recordingmode sum(packetBytes)
attr source packetDropReasonIsNoRouteFound(packetDropped)
attr title "packet drop: no route found, sum(packetBytes)"
scalar SingleCell.ue[0].ipv4.ip packetDropUndefined:count 0
attr interpolationmode none
attr recordingmode count
attr source packetDropReasonIsUndefined(packetDropped)
attr title "packet drop: undefined, count"
scalar SingleCell.ue[0].ipv4.ip packetDropUndefined:sum(packetBytes) 0
attr interpolationmode none
attr recordingmode sum(packetBytes)
attr source packetDropReasonIsUndefined(packetDropped)
attr title "packet drop: undefined, sum(packetBytes)"
par SingleCell.ue[0].ipv4.arp typename "\"inet.networklayer.arp.ipv4.Arp\""
par SingleCell.ue[0].ipv4.arp interfaceTableModule "\"SingleCell.ue[0].interfaceTable\""
par SingleCell.ue[0].ipv4.arp routingTableModule "\"SingleCell.ue[0].ipv4.routingTable\""
par SingleCell.ue[0].ipv4.arp retryTimeout 1s
attr unit s
par SingleCell.ue[0].ipv4.arp retryCount 3
par SingleCell.ue[0].ipv4.arp cacheTimeout 120s
attr unit s
par SingleCell.ue[0].ipv4.arp proxyArpInterfaces "\"*\""
scalar SingleCell.ue[0].ipv4.arp arpReplySent:count 0
attr recordingmode count
attr source arpReplySent
attr title "ARP replies sent, count"
scalar SingleCell.ue[0].ipv4.arp arpReplySent:sum(packetBytes) 0
attr recordingmode sum(packetBytes)
attr source arpReplySent
attr title "ARP replies sent, sum(packetBytes)"
scalar SingleCell.ue[0].ipv4.arp arpRequestSent:count 0
attr recordingmode count
attr source arpRequestSent
attr title "ARP request sent, count"
scalar SingleCell.ue[0].ipv4.arp arpRequestSent:sum(packetBytes) 0
attr recordingmode sum(packetBytes)
attr source arpRequestSent
attr title "ARP request sent, sum(packetBytes)"
scalar SingleCell.ue[0].ipv4.arp arpResolutionFailed:count 0
attr recordingmode count
attr title "ARP failed resolutions, count"
scalar SingleCell.ue[0].ipv4.arp arpResolutionCompleted:count 0
attr recordingmode count
attr title "ARP completed resolutions, count"
scalar SingleCell.ue[0].ipv4.arp arpResolutionInitiated:count 0
attr recordingmode count
attr title "ARP initiated resolutions, count"
par SingleCell.ue[0].ipv4.lp typename "\"inet.common.MessageDispatcher\""
par SingleCell.ue[0].ipv4.lp displayStringTextFormat "\"processed %p pk (%l)\""
par SingleCell.ue[0].ipv4.lp forwardServiceRegistration true
par SingleCell.ue[0].ipv4.lp forwardProtocolRegistration true
par SingleCell.ue[0].ipv4 typename "\"inet.networklayer.ipv4.Ipv4NetworkLayer\""
par SingleCell.ue[0].ipv4 forwarding false
par SingleCell.ue[0].ipv4 multicastForwarding false
par SingleCell.ue[0].ipv4 interfaceTableModule "\"SingleCell.ue[0].interfaceTable\""
par SingleCell.ue[0].ipv4 displayStringTextFormat "\"%i\""
par SingleCell.ue[0].udp typename "\"inet.transportlayer.udp.Udp\""
par SingleCell.ue[0].udp interfaceTableModule "\"SingleCell.ue[0].interfaceTable\""
par SingleCell.ue[0].udp icmpModule "\"^.ipv4.icmp\""
par SingleCell.ue[0].udp icmpv6Module "\"^.ipv6.icmpv6\""
par SingleCell.ue[0].udp crcMode "\"declared\""
attr enum disabled,declared,computed
par SingleCell.ue[0].udp defaultMulticastLoop true
scalar SingleCell.ue[0].udp packetReceived:count 1197
attr interpolationmode none
attr recordingmode count
attr source packetReceived
attr title "packets received, count"
scalar SingleCell.ue[0].udp packetReceived:sum(packetBytes) 1206576
attr interpolationmode none
attr recordingmode sum(packetBytes)
attr source packetReceived
attr title "packets received, sum(packetBytes)"
scalar SingleCell.ue[0].udp packetSent:count 0
attr interpolationmode none
attr recordingmode count
attr source packetSent
attr title "packets sent, count"
scalar SingleCell.ue[0].udp packetSent:sum(packetBytes) 0
attr interpolationmode none
attr recordingmode sum(packetBytes)
attr source packetSent
attr title "packets sent, sum(packetBytes)"
scalar SingleCell.ue[0].udp passedUpPk:count 1197
attr interpolationmode none
attr recordingmode count
attr source packetSentToUpper
attr title "packets passed up, count"
scalar SingleCell.ue[0].udp droppedPkWrongPort:count 0
attr interpolationmode none
attr recordingmode count
attr source packetDropReasonIsNoPortFound(packetDropped)
attr title "packets dropped (wrong port), count"
scalar SingleCell.ue[0].udp droppedPkBadChecksum:count 0
attr interpolationmode none
attr recordingmode count
attr source packetDropReasonIsIncorrectlyReceived(packetDropped)
attr title "packets dropped (checksum error), count"
par SingleCell.ue[0].tcp typename "\"inet.transportlayer.tcp.Tcp\""
par SingleCell.ue[0].tcp crcMode "\"declared\""
attr enum declared,computed
par SingleCell.ue[0].tcp advertisedWindow 7504
par SingleCell.ue[0].tcp delayedAcksEnabled false
par SingleCell.ue[0].tcp nagleEnabled true
par SingleCell.ue[0].tcp limitedTransmitEnabled false
par SingleCell.ue[0].tcp increasedIWEnabled false
par SingleCell.ue[0].tcp sackSupport false
par SingleCell.ue[0].tcp windowScalingSupport false
par SingleCell.ue[0].tcp windowScalingFactor -1
par SingleCell.ue[0].tcp timestampSupport false
par SingleCell.ue[0].tcp mss 536
par SingleCell.ue[0].tcp msl 120s
attr unit s
par SingleCell.ue[0].tcp tcpAlgorithmClass "\"TcpReno\""
par SingleCell.ue[0].tcp useDataNotification false
par SingleCell.ue[0].tcp dupthresh 3
par SingleCell.ue[0].tcp initialSsthresh 4294967295
par SingleCell.ue[0].tcp stopOperationExtraTime 0s
attr unit s
par SingleCell.ue[0].tcp stopOperationTimeout 2s
attr unit s
par SingleCell.ue[0].tcp ecnWillingness false
par SingleCell.ue[0].tcp dctcpGamma 0.0625
par SingleCell.ue[0].app[0] typename "\"simu5g.apps.voip.VoIPReceiver\""
par SingleCell.ue[0].app[0] localPort 3000
par SingleCell.ue[0].app[0] emodel_Ie_ 5
par SingleCell.ue[0].app[0] emodel_Bpl_ 10
par SingleCell.ue[0].app[0] emodel_A_ 5
par SingleCell.ue[0].app[0] emodel_Ro_ 93.2
par SingleCell.ue[0].app[0] playout_delay 0s
attr unit s
par SingleCell.ue[0].app[0] dim_buffer 20pk
attr unit pk
par SingleCell.ue[0].app[0] sampling_time 0.02s
attr unit s
scalar SingleCell.ue[0].app[0] voIPReceivedThroughput:mean 42690.56435585
attr recordingmode mean
attr source voIPReceivedThroughput
attr title "Throughput received at the application level, mean"
attr unit Bps
scalar SingleCell.ue[0].app[0] voIPPlayoutLoss:mean 0.03973180382489
attr recordingmode mean
attr source voIPPlayoutLoss
attr title "VoIP Playout Loss, mean"
attr unit ratio
scalar SingleCell.ue[0].app[0] voIPJitter:mean 0.064216216216216
attr recordingmode mean
attr source voIPJitter
attr title "VoIP Jitter, mean"
attr unit s
scalar SingleCell.ue[0].app[0] voIPTaildropLoss:mean 0
attr recordingmode mean
attr source voIPTaildropLoss
attr title "VoIP Tail Drop Loss, mean"
attr unit ratio
scalar SingleCell.ue[0].app[0] voIPMos:mean 3.8100710016185
attr recordingmode mean
attr source voIPMos
attr title "VoIP Mos Signal, mean"
attr unit MOS
scalar SingleCell.ue[0].app[0] voIPPlayoutDelay:mean 0.029076923076923
attr recordingmode mean
attr source voIPPlayoutDelay
attr title "VoIP Playout Delay, mean"
attr unit s
scalar SingleCell.ue[0].app[0] voIPFrameDelay:mean 0.007867753575549
attr recordingmode mean
attr source voIPFrameDelay
attr title "VoIP Frame Delay, mean"
attr unit s
scalar SingleCell.ue[0].app[0] voIPFrameLoss:mean 0.00033590863285186
attr recordingmode mean
attr source voIPFrameLoss
attr title "VoIP Frame Loss, mean"
attr unit ratio
par SingleCell.ue[0].at typename "\"inet.common.MessageDispatcher\""
par SingleCell.ue[0].at displayStringTextFormat "\"processed %p pk (%l)\""
par SingleCell.ue[0].at forwardServiceRegistration true
par SingleCell.ue[0].at forwardProtocolRegistration true
par SingleCell.ue[0].tn typename "\"inet.common.MessageDispatcher\""
par SingleCell.ue[0].tn displayStringTextFormat "\"processed %p pk (%l)\""
par SingleCell.ue[0].tn forwardServiceRegistration true
par SingleCell.ue[0].tn forwardProtocolRegistration true
par SingleCell.ue[0].nl typename "\"inet.common.MessageDispatcher\""
par SingleCell.ue[0].nl displayStringTextFormat "\"processed %p pk (%l)\""
par SingleCell.ue[0].nl forwardServiceRegistration true
par SingleCell.ue[0].nl forwardProtocolRegistration true
par SingleCell.ue[0] typename "\"simu5g.nodes.NR.NRUe\""
par SingleCell.ue[0] numApps 1
par SingleCell.ue[0] hasUdp true
par SingleCell.ue[0] hasTcp true
par SingleCell.ue[0] hasSctp false
par SingleCell.ue[0] nodeType "\"UE\""
par SingleCell.ue[0] masterId 0
attr mutable ""
par SingleCell.ue[0] macNodeId 1025
attr mutable ""
par SingleCell.ue[0] macCellId 0
attr mutable ""
par SingleCell.ue[0] hasIpv4 true
par SingleCell.ue[0] hasIpv6 false
par SingleCell.ue[0] numEthInterfaces 0
par SingleCell.ue[0] extHostAddress "\"\""
par SingleCell.ue[0] numLoInterfaces 1
par SingleCell.ue[0] numPcapRecorders 0
par SingleCell.ue[0] hasRNISupport false
par SingleCell.ue[0] nrMasterId 1
attr mutable ""
par SingleCell.ue[0] nrMacNodeId 2049
attr mutable ""
par SingleCell.ue[0] nrMacCellId 1
attr mutable ""
par SingleCell.radioMedium.propagation typename "\"inet.physicallayer.wireless.common.propagation.ConstantSpeedPropagation\""
par SingleCell.radioMedium.propagation propagationSpeed 2.99792e+08mps
attr unit mps
par SingleCell.radioMedium.propagation ignoreMovementDuringTransmission true
par SingleCell.radioMedium.propagation ignoreMovementDuringPropagation true
par SingleCell.radioMedium.propagation ignoreMovementDuringReception true
scalar SingleCell.radioMedium.propagation "Arrival computation count" 0
par SingleCell.radioMedium.analogModel typename "\"inet.physicallayer.wireless.common.analogmodel.packetlevel.ScalarAnalogModel\""
par SingleCell.radioMedium.analogModel ignorePartialInterference false
par SingleCell.radioMedium.backgroundNoise typename "\"inet.physicallayer.wireless.common.backgroundnoise.IsotropicScalarBackgroundNoise\""
par SingleCell.radioMedium.backgroundNoise power 0dBm
attr unit dBm
par SingleCell.radioMedium.backgroundNoise bandwidth "nan Hz"
attr unit Hz
par SingleCell.radioMedium.pathLoss typename "\"inet.physicallayer.wireless.common.pathloss.FreeSpacePathLoss\""
par SingleCell.radioMedium.pathLoss alpha 2
par SingleCell.radioMedium.pathLoss systemLoss 0dB
attr unit dB
par SingleCell.radioMedium.obstacleLoss typename "\"inet.physicallayer.wireless.common.obstacleloss.IdealObstacleLoss\""
par SingleCell.radioMedium.obstacleLoss physicalEnvironmentModule "\"physicalEnvironment\""
par SingleCell.radioMedium.mediumLimitCache typename "\"inet.physicallayer.wireless.common.medium.MediumLimitCache\""
par SingleCell.radioMedium.mediumLimitCache centerFrequency "nan Hz"
attr unit Hz
par SingleCell.radioMedium.mediumLimitCache maxSpeed "nan mps"
attr unit mps
par SingleCell.radioMedium.mediumLimitCache maxTransmissionPower "nan W"
attr unit W
par SingleCell.radioMedium.mediumLimitCache minInterferencePower "nan dBm"
attr unit dBm
par SingleCell.radioMedium.mediumLimitCache minReceptionPower "nan dBm"
attr unit dBm
par SingleCell.radioMedium.mediumLimitCache maxAntennaGain 0dB
attr unit dB
par SingleCell.radioMedium.mediumLimitCache minInterferenceTime 1e-12s
attr unit s
par SingleCell.radioMedium.mediumLimitCache maxTransmissionDuration 0.01s
attr unit s
par SingleCell.radioMedium.mediumLimitCache maxCommunicationRange "nan m"
attr unit m
par SingleCell.radioMedium.mediumLimitCache maxInterferenceRange "nan m"
attr unit m
par SingleCell.radioMedium.communicationCache typename "\"inet.physicallayer.wireless.common.communicationcache.VectorCommunicationCache\""
par SingleCell.radioMedium typename "\"inet.physicallayer.wireless.apsk.packetlevel.ApskScalarRadioMedium\""
par SingleCell.radioMedium physicalEnvironmentModule "\"physicalEnvironment\""
par SingleCell.radioMedium signalAnalogRepresentation "\"scalar\""
attr enum unitDisk,scalar,dimensional
par SingleCell.radioMedium rangeFilter "\"\""
par SingleCell.radioMedium radioModeFilter false
par SingleCell.radioMedium listeningFilter false
par SingleCell.radioMedium macAddressFilter false
par SingleCell.radioMedium recordTransmissionLog false
par SingleCell.radioMedium recordReceptionLog false
scalar SingleCell.radioMedium "transmission count" 0
scalar SingleCell.radioMedium "signal send count" 0
scalar SingleCell.radioMedium "reception computation count" 0
scalar SingleCell.radioMedium "interference computation count" 0
scalar SingleCell.radioMedium "reception decision computation count" 0
scalar SingleCell.radioMedium "listening decision computation count" 0
scalar SingleCell.radioMedium "reception cache hit" nan
attr unit %
scalar SingleCell.radioMedium "interference cache hit" nan
attr unit %
scalar SingleCell.radioMedium "noise cache hit" nan
attr unit %
scalar SingleCell.radioMedium "snir cache hit" nan
attr unit %
scalar SingleCell.radioMedium "reception decision cache hit" nan
attr unit %
scalar SingleCell.radioMedium "reception result cache hit" nan
attr unit %
par SingleCell typename "\"SingleCell\""
par SingleCell numUe 1
par SingleCell numBgCells 0

